version 2
run nodebug-0-20180531-21:47:16-1724
attr configname nodebug
attr datetime 20180531-21:47:16
attr experiment nodebug
attr inifile omnetpp.ini
attr iterationvars ""
attr iterationvars2 $repetition=0
attr measurement ""
attr network SERVitESScenario
attr processid 1724
attr repetition 0
attr replication #0
attr resultdir results
attr runnumber 0
attr seedset 0
param **.coreDebug false
param **.debug false
param *.**.nic.mac1609_4.bitrate 18Mbps
param *.**.nic.mac1609_4.txPower 20mW
param *.**.nic.mac1609_4.useServiceChannel false
param *.**.nic.phy80211p.analogueModels "xmldoc(\"config.xml\")"
param *.**.nic.phy80211p.decider "xmldoc(\"config.xml\")"
param *.**.nic.phy80211p.sensitivity -89dBm
param *.**.nic.phy80211p.thermalNoise -110dBm
param *.**.nic.phy80211p.usePropagationDelay true
param *.**.nic.phy80211p.useThermalNoise true
param *.annotations.draw false
param *.connectionManager.alpha 2.0
param *.connectionManager.carrierFrequency "5.890e9 Hz"
param *.connectionManager.pMax 20mW
param *.connectionManager.sat -89dBm
param *.connectionManager.sendDirect true
param *.manager.autoShutdown true
param *.manager.host "\"localhost\""
param *.manager.launchConfig "xmldoc(\"erlangen.launchd.xml\")"
param *.manager.margin 25
param *.manager.moduleDisplayString "\"\""
param *.manager.moduleName "\"node\""
param *.manager.moduleType "\"org.car2x.veins.nodes.Car\""
param *.manager.numVehicles 100
param *.manager.port 9999
param *.manager.updateInterval 0.1s
param *.node[*0].veinsmobility.accidentCount 0
param *.node[*0].veinsmobility.accidentDuration 30s
param *.node[*0].veinsmobility.accidentStart 75s
param *.node[*].appl.beaconInterval 1s
param *.node[*].appl.beaconPriority 3
param *.node[*].appl.dataOnSch false
param *.node[*].appl.dataPriority 2
param *.node[*].appl.debug false
param *.node[*].appl.headerLength "256 bit"
param *.node[*].appl.maxOffset 0.005s
param *.node[*].appl.sendBeacons false
param *.node[*].appl.sendData true
param *.node[*].applType "\"SERVitESApplLayer\""
param *.node[*].mobilityType "\"TraCIMobility\""
param *.node[*].mobilityType.debug true
param *.node[*].veinsmobility.x 0
param *.node[*].veinsmobility.y 0
param *.node[*].veinsmobility.z 1.895
param *.node[*].veinsmobilityType "\"org.car2x.veins.modules.mobility.traci.TraCIMobility\""
param *.node[*].veinsmobilityType.debug true
param *.obstacles.debug false
param *.obstacles.obstacles "xmldoc(\"config.xml\", \"//AnalogueModel[@type='SimpleObstacleShadowing']/obstacles\")"
param *.playgroundSizeX 15000m
param *.playgroundSizeY 15000m
param *.playgroundSizeZ 50m
param *.world.use2D false
param *.world.useTorus false

scalar SERVitESScenario.node[20].appl 	"Avg CH Duration" 	0
scalar SERVitESScenario.node[20].appl 	"Avg MV Duration" 	0
scalar SERVitESScenario.node[20].appl 	"Avg GW Duration" 	0
scalar SERVitESScenario.node[20].appl 	"Avg Service Availability" 	64
scalar SERVitESScenario.node[20].appl 	reqNumber 	0
scalar SERVitESScenario.node[20].appl 	"response number" 	0
scalar SERVitESScenario.node[20].appl 	"use resource" 	0
scalar SERVitESScenario.node[20].appl 	requestHelp 	0
scalar SERVitESScenario.node[20].appl 	"Res Ready" 	0
scalar SERVitESScenario.node[20].appl 	"Service Searching TIME MIN " 	1
scalar SERVitESScenario.node[20].appl 	"Service Searching TIME MAX " 	0
scalar SERVitESScenario.node[20].appl 	"join cluster " 	0
scalar SERVitESScenario.node[20].appl 	overheadCluster 	0
scalar SERVitESScenario.node[20].appl 	overheadService 	0
scalar SERVitESScenario.node[20].appl 	overheadBeacon 	0
scalar SERVitESScenario.node[20].nic.phy80211p 	busyTime 	0
scalar SERVitESScenario.node[20].nic.mac1609_4 	ReceivedUnicastPackets 	0
scalar SERVitESScenario.node[20].nic.mac1609_4 	ReceivedBroadcasts 	0
scalar SERVitESScenario.node[20].nic.mac1609_4 	SentPackets 	0
scalar SERVitESScenario.node[20].nic.mac1609_4 	SNIRLostPackets 	0
scalar SERVitESScenario.node[20].nic.mac1609_4 	RXTXLostPackets 	0
scalar SERVitESScenario.node[20].nic.mac1609_4 	TotalLostPackets 	0
scalar SERVitESScenario.node[20].nic.mac1609_4 	DroppedPacketsInMac 	0
scalar SERVitESScenario.node[20].nic.mac1609_4 	TooLittleTime 	0
scalar SERVitESScenario.node[20].nic.mac1609_4 	TimesIntoBackoff 	0
scalar SERVitESScenario.node[20].nic.mac1609_4 	SlotsBackoff 	0
scalar SERVitESScenario.node[20].nic.mac1609_4 	NumInternalContention 	0
scalar SERVitESScenario.node[20].nic.mac1609_4 	totalBusyTime 	0
scalar SERVitESScenario.node[20].veinsmobility 	startTime 	13.1
scalar SERVitESScenario.node[20].veinsmobility 	totalTime 	6.4
scalar SERVitESScenario.node[20].veinsmobility 	stopTime 	19.6
scalar SERVitESScenario.node[20].veinsmobility 	minSpeed 	0.25653294061613
scalar SERVitESScenario.node[20].veinsmobility 	maxSpeed 	10.125212467574
scalar SERVitESScenario.node[20].veinsmobility 	totalDistance 	40.726029834752
scalar SERVitESScenario.node[20].veinsmobility 	totalCO2Emission 	21.745969517422
scalar SERVitESScenario.node[9].appl 	"Avg CH Duration" 	0
scalar SERVitESScenario.node[9].appl 	"Avg MV Duration" 	0
scalar SERVitESScenario.node[9].appl 	"Avg GW Duration" 	0
scalar SERVitESScenario.node[9].appl 	"Avg Service Availability" 	302
scalar SERVitESScenario.node[9].appl 	reqNumber 	0
scalar SERVitESScenario.node[9].appl 	"response number" 	0
scalar SERVitESScenario.node[9].appl 	"use resource" 	0
scalar SERVitESScenario.node[9].appl 	requestHelp 	0
scalar SERVitESScenario.node[9].appl 	"Res Ready" 	0
scalar SERVitESScenario.node[9].appl 	"Service Searching TIME MIN " 	1
scalar SERVitESScenario.node[9].appl 	"Service Searching TIME MAX " 	0
scalar SERVitESScenario.node[9].appl 	"join cluster " 	0
scalar SERVitESScenario.node[9].appl 	overheadCluster 	0
scalar SERVitESScenario.node[9].appl 	overheadService 	0
scalar SERVitESScenario.node[9].appl 	overheadBeacon 	0
scalar SERVitESScenario.node[9].nic.phy80211p 	busyTime 	0
scalar SERVitESScenario.node[9].nic.mac1609_4 	ReceivedUnicastPackets 	0
scalar SERVitESScenario.node[9].nic.mac1609_4 	ReceivedBroadcasts 	0
scalar SERVitESScenario.node[9].nic.mac1609_4 	SentPackets 	0
scalar SERVitESScenario.node[9].nic.mac1609_4 	SNIRLostPackets 	0
scalar SERVitESScenario.node[9].nic.mac1609_4 	RXTXLostPackets 	0
scalar SERVitESScenario.node[9].nic.mac1609_4 	TotalLostPackets 	0
scalar SERVitESScenario.node[9].nic.mac1609_4 	DroppedPacketsInMac 	0
scalar SERVitESScenario.node[9].nic.mac1609_4 	TooLittleTime 	0
scalar SERVitESScenario.node[9].nic.mac1609_4 	TimesIntoBackoff 	0
scalar SERVitESScenario.node[9].nic.mac1609_4 	SlotsBackoff 	0
scalar SERVitESScenario.node[9].nic.mac1609_4 	NumInternalContention 	0
scalar SERVitESScenario.node[9].nic.mac1609_4 	totalBusyTime 	0
scalar SERVitESScenario.node[9].veinsmobility 	startTime 	6.1
scalar SERVitESScenario.node[9].veinsmobility 	totalTime 	30.2
scalar SERVitESScenario.node[9].veinsmobility 	stopTime 	36.4
scalar SERVitESScenario.node[9].veinsmobility 	minSpeed 	0.25675264842436
scalar SERVitESScenario.node[9].veinsmobility 	maxSpeed 	10.149869512542
scalar SERVitESScenario.node[9].veinsmobility 	totalDistance 	267.7237684904
scalar SERVitESScenario.node[9].veinsmobility 	totalCO2Emission 	64.008281031747
scalar SERVitESScenario.node[15].appl 	"Avg CH Duration" 	85
scalar SERVitESScenario.node[15].appl 	"Avg MV Duration" 	0
scalar SERVitESScenario.node[15].appl 	"Avg GW Duration" 	0
scalar SERVitESScenario.node[15].appl 	"Avg Service Availability" 	486
scalar SERVitESScenario.node[15].appl 	reqNumber 	0
scalar SERVitESScenario.node[15].appl 	"response number" 	0
scalar SERVitESScenario.node[15].appl 	"use resource" 	0
scalar SERVitESScenario.node[15].appl 	requestHelp 	0
scalar SERVitESScenario.node[15].appl 	"Res Ready" 	0
scalar SERVitESScenario.node[15].appl 	"Service Searching TIME MIN " 	1
scalar SERVitESScenario.node[15].appl 	"Service Searching TIME MAX " 	0
scalar SERVitESScenario.node[15].appl 	"join cluster " 	1
scalar SERVitESScenario.node[15].appl 	overheadCluster 	2
scalar SERVitESScenario.node[15].appl 	overheadService 	0
scalar SERVitESScenario.node[15].appl 	overheadBeacon 	0
scalar SERVitESScenario.node[15].nic.phy80211p 	busyTime 	5.9202149968753e-005
scalar SERVitESScenario.node[15].nic.mac1609_4 	ReceivedUnicastPackets 	0
scalar SERVitESScenario.node[15].nic.mac1609_4 	ReceivedBroadcasts 	22
scalar SERVitESScenario.node[15].nic.mac1609_4 	SentPackets 	3
scalar SERVitESScenario.node[15].nic.mac1609_4 	SNIRLostPackets 	2
scalar SERVitESScenario.node[15].nic.mac1609_4 	RXTXLostPackets 	0
scalar SERVitESScenario.node[15].nic.mac1609_4 	TotalLostPackets 	2
scalar SERVitESScenario.node[15].nic.mac1609_4 	DroppedPacketsInMac 	0
scalar SERVitESScenario.node[15].nic.mac1609_4 	TooLittleTime 	0
scalar SERVitESScenario.node[15].nic.mac1609_4 	TimesIntoBackoff 	3
scalar SERVitESScenario.node[15].nic.mac1609_4 	SlotsBackoff 	11
scalar SERVitESScenario.node[15].nic.mac1609_4 	NumInternalContention 	0
scalar SERVitESScenario.node[15].nic.mac1609_4 	totalBusyTime 	0.003123
scalar SERVitESScenario.node[15].veinsmobility 	startTime 	10.1
scalar SERVitESScenario.node[15].veinsmobility 	totalTime 	48.6
scalar SERVitESScenario.node[15].veinsmobility 	stopTime 	58.746881937904
scalar SERVitESScenario.node[15].veinsmobility 	minSpeed 	0.25406015151599
scalar SERVitESScenario.node[15].veinsmobility 	maxSpeed 	10.171781328056
scalar SERVitESScenario.node[15].veinsmobility 	totalDistance 	463.2418819507
scalar SERVitESScenario.node[15].veinsmobility 	totalCO2Emission 	92.990457103603
scalar SERVitESScenario.node[16].appl 	"Avg CH Duration" 	0
scalar SERVitESScenario.node[16].appl 	"Avg MV Duration" 	155
scalar SERVitESScenario.node[16].appl 	"Avg GW Duration" 	0
scalar SERVitESScenario.node[16].appl 	"Avg Service Availability" 	465
scalar SERVitESScenario.node[16].appl 	reqNumber 	1
scalar SERVitESScenario.node[16].appl 	"response number" 	1
scalar SERVitESScenario.node[16].appl 	"use resource" 	1
scalar SERVitESScenario.node[16].appl 	requestHelp 	0
scalar SERVitESScenario.node[16].appl 	"Res Ready" 	1
scalar SERVitESScenario.node[16].appl 	"Service Searching TIME MIN " 	0.003229126243
scalar SERVitESScenario.node[16].appl 	"Service Searching TIME MAX " 	0.003229126243
scalar SERVitESScenario.node[16].appl 	"join cluster " 	1
scalar SERVitESScenario.node[16].appl 	overheadCluster 	1
scalar SERVitESScenario.node[16].appl 	overheadService 	3
scalar SERVitESScenario.node[16].appl 	overheadBeacon 	32
scalar SERVitESScenario.node[16].nic.phy80211p 	busyTime 	0.00056163171463927
scalar SERVitESScenario.node[16].nic.mac1609_4 	ReceivedUnicastPackets 	0
scalar SERVitESScenario.node[16].nic.mac1609_4 	ReceivedBroadcasts 	223
scalar SERVitESScenario.node[16].nic.mac1609_4 	SentPackets 	36
scalar SERVitESScenario.node[16].nic.mac1609_4 	SNIRLostPackets 	0
scalar SERVitESScenario.node[16].nic.mac1609_4 	RXTXLostPackets 	0
scalar SERVitESScenario.node[16].nic.mac1609_4 	TotalLostPackets 	0
scalar SERVitESScenario.node[16].nic.mac1609_4 	DroppedPacketsInMac 	0
scalar SERVitESScenario.node[16].nic.mac1609_4 	TooLittleTime 	0
scalar SERVitESScenario.node[16].nic.mac1609_4 	TimesIntoBackoff 	36
scalar SERVitESScenario.node[16].nic.mac1609_4 	SlotsBackoff 	134
scalar SERVitESScenario.node[16].nic.mac1609_4 	NumInternalContention 	0
scalar SERVitESScenario.node[16].nic.mac1609_4 	totalBusyTime 	0.031116
scalar SERVitESScenario.node[16].veinsmobility 	startTime 	11.1
scalar SERVitESScenario.node[16].veinsmobility 	totalTime 	47.6
scalar SERVitESScenario.node[16].veinsmobility 	stopTime 	58.746881937904
scalar SERVitESScenario.node[16].veinsmobility 	minSpeed 	0.25353018627828
scalar SERVitESScenario.node[16].veinsmobility 	maxSpeed 	10.002704893
scalar SERVitESScenario.node[16].veinsmobility 	totalDistance 	451.18105756937
scalar SERVitESScenario.node[16].veinsmobility 	totalCO2Emission 	89.788210592259
scalar SERVitESScenario.node[18].appl 	"Avg CH Duration" 	0
scalar SERVitESScenario.node[18].appl 	"Avg MV Duration" 	65
scalar SERVitESScenario.node[18].appl 	"Avg GW Duration" 	0
scalar SERVitESScenario.node[18].appl 	"Avg Service Availability" 	464
scalar SERVitESScenario.node[18].appl 	reqNumber 	1
scalar SERVitESScenario.node[18].appl 	"response number" 	0
scalar SERVitESScenario.node[18].appl 	"use resource" 	0
scalar SERVitESScenario.node[18].appl 	requestHelp 	0
scalar SERVitESScenario.node[18].appl 	"Res Ready" 	2
scalar SERVitESScenario.node[18].appl 	"Service Searching TIME MIN " 	0.005619656057
scalar SERVitESScenario.node[18].appl 	"Service Searching TIME MAX " 	58.442888074286
scalar SERVitESScenario.node[18].appl 	"join cluster " 	1
scalar SERVitESScenario.node[18].appl 	overheadCluster 	3
scalar SERVitESScenario.node[18].appl 	overheadService 	3
scalar SERVitESScenario.node[18].appl 	overheadBeacon 	14
scalar SERVitESScenario.node[18].nic.phy80211p 	busyTime 	0.00027268703655118
scalar SERVitESScenario.node[18].nic.mac1609_4 	ReceivedUnicastPackets 	0
scalar SERVitESScenario.node[18].nic.mac1609_4 	ReceivedBroadcasts 	102
scalar SERVitESScenario.node[18].nic.mac1609_4 	SentPackets 	20
scalar SERVitESScenario.node[18].nic.mac1609_4 	SNIRLostPackets 	4
scalar SERVitESScenario.node[18].nic.mac1609_4 	RXTXLostPackets 	0
scalar SERVitESScenario.node[18].nic.mac1609_4 	TotalLostPackets 	4
scalar SERVitESScenario.node[18].nic.mac1609_4 	DroppedPacketsInMac 	0
scalar SERVitESScenario.node[18].nic.mac1609_4 	TooLittleTime 	0
scalar SERVitESScenario.node[18].nic.mac1609_4 	TimesIntoBackoff 	20
scalar SERVitESScenario.node[18].nic.mac1609_4 	SlotsBackoff 	53
scalar SERVitESScenario.node[18].nic.mac1609_4 	NumInternalContention 	0
scalar SERVitESScenario.node[18].nic.mac1609_4 	totalBusyTime 	0.0149
scalar SERVitESScenario.node[18].veinsmobility 	startTime 	12.1
scalar SERVitESScenario.node[18].veinsmobility 	totalTime 	46.6
scalar SERVitESScenario.node[18].veinsmobility 	stopTime 	58.746881937904
scalar SERVitESScenario.node[18].veinsmobility 	minSpeed 	0.25101838154439
scalar SERVitESScenario.node[18].veinsmobility 	maxSpeed 	10.089513199311
scalar SERVitESScenario.node[18].veinsmobility 	totalDistance 	408.86259452627
scalar SERVitESScenario.node[18].veinsmobility 	totalCO2Emission 	106.42059553455
scalar SERVitESScenario.node[22].appl 	"Avg CH Duration" 	155
scalar SERVitESScenario.node[22].appl 	"Avg MV Duration" 	0
scalar SERVitESScenario.node[22].appl 	"Avg GW Duration" 	0
scalar SERVitESScenario.node[22].appl 	"Avg Service Availability" 	446
scalar SERVitESScenario.node[22].appl 	reqNumber 	0
scalar SERVitESScenario.node[22].appl 	"response number" 	0
scalar SERVitESScenario.node[22].appl 	"use resource" 	0
scalar SERVitESScenario.node[22].appl 	requestHelp 	0
scalar SERVitESScenario.node[22].appl 	"Res Ready" 	0
scalar SERVitESScenario.node[22].appl 	"Service Searching TIME MIN " 	1
scalar SERVitESScenario.node[22].appl 	"Service Searching TIME MAX " 	0
scalar SERVitESScenario.node[22].appl 	"join cluster " 	1
scalar SERVitESScenario.node[22].appl 	overheadCluster 	2
scalar SERVitESScenario.node[22].appl 	overheadService 	0
scalar SERVitESScenario.node[22].appl 	overheadBeacon 	0
scalar SERVitESScenario.node[22].nic.phy80211p 	busyTime 	0.00077407421302269
scalar SERVitESScenario.node[22].nic.mac1609_4 	ReceivedUnicastPackets 	0
scalar SERVitESScenario.node[22].nic.mac1609_4 	ReceivedBroadcasts 	282
scalar SERVitESScenario.node[22].nic.mac1609_4 	SentPackets 	17
scalar SERVitESScenario.node[22].nic.mac1609_4 	SNIRLostPackets 	6
scalar SERVitESScenario.node[22].nic.mac1609_4 	RXTXLostPackets 	0
scalar SERVitESScenario.node[22].nic.mac1609_4 	TotalLostPackets 	6
scalar SERVitESScenario.node[22].nic.mac1609_4 	DroppedPacketsInMac 	0
scalar SERVitESScenario.node[22].nic.mac1609_4 	TooLittleTime 	0
scalar SERVitESScenario.node[22].nic.mac1609_4 	TimesIntoBackoff 	19
scalar SERVitESScenario.node[22].nic.mac1609_4 	SlotsBackoff 	52
scalar SERVitESScenario.node[22].nic.mac1609_4 	NumInternalContention 	0
scalar SERVitESScenario.node[22].nic.mac1609_4 	totalBusyTime 	0.036257
scalar SERVitESScenario.node[22].veinsmobility 	startTime 	14.1
scalar SERVitESScenario.node[22].veinsmobility 	totalTime 	44.6
scalar SERVitESScenario.node[22].veinsmobility 	stopTime 	58.746881937904
scalar SERVitESScenario.node[22].veinsmobility 	minSpeed 	0.24738049127092
scalar SERVitESScenario.node[22].veinsmobility 	maxSpeed 	10.167925620364
scalar SERVitESScenario.node[22].veinsmobility 	totalDistance 	374.65838237194
scalar SERVitESScenario.node[22].veinsmobility 	totalCO2Emission 	107.15769243018
scalar SERVitESScenario.node[25].appl 	"Avg CH Duration" 	0
scalar SERVitESScenario.node[25].appl 	"Avg MV Duration" 	65
scalar SERVitESScenario.node[25].appl 	"Avg GW Duration" 	0
scalar SERVitESScenario.node[25].appl 	"Avg Service Availability" 	416
scalar SERVitESScenario.node[25].appl 	reqNumber 	0
scalar SERVitESScenario.node[25].appl 	"response number" 	0
scalar SERVitESScenario.node[25].appl 	"use resource" 	0
scalar SERVitESScenario.node[25].appl 	requestHelp 	0
scalar SERVitESScenario.node[25].appl 	"Res Ready" 	0
scalar SERVitESScenario.node[25].appl 	"Service Searching TIME MIN " 	1
scalar SERVitESScenario.node[25].appl 	"Service Searching TIME MAX " 	0
scalar SERVitESScenario.node[25].appl 	"join cluster " 	1
scalar SERVitESScenario.node[25].appl 	overheadCluster 	1
scalar SERVitESScenario.node[25].appl 	overheadService 	0
scalar SERVitESScenario.node[25].appl 	overheadBeacon 	14
scalar SERVitESScenario.node[25].nic.phy80211p 	busyTime 	0.00038610333479408
scalar SERVitESScenario.node[25].nic.mac1609_4 	ReceivedUnicastPackets 	0
scalar SERVitESScenario.node[25].nic.mac1609_4 	ReceivedBroadcasts 	134
scalar SERVitESScenario.node[25].nic.mac1609_4 	SentPackets 	15
scalar SERVitESScenario.node[25].nic.mac1609_4 	SNIRLostPackets 	0
scalar SERVitESScenario.node[25].nic.mac1609_4 	RXTXLostPackets 	0
scalar SERVitESScenario.node[25].nic.mac1609_4 	TotalLostPackets 	0
scalar SERVitESScenario.node[25].nic.mac1609_4 	DroppedPacketsInMac 	0
scalar SERVitESScenario.node[25].nic.mac1609_4 	TooLittleTime 	0
scalar SERVitESScenario.node[25].nic.mac1609_4 	TimesIntoBackoff 	15
scalar SERVitESScenario.node[25].nic.mac1609_4 	SlotsBackoff 	59
scalar SERVitESScenario.node[25].nic.mac1609_4 	NumInternalContention 	0
scalar SERVitESScenario.node[25].nic.mac1609_4 	totalBusyTime 	0.017895
scalar SERVitESScenario.node[25].veinsmobility 	startTime 	17.1
scalar SERVitESScenario.node[25].veinsmobility 	totalTime 	41.6
scalar SERVitESScenario.node[25].veinsmobility 	stopTime 	58.746881937904
scalar SERVitESScenario.node[25].veinsmobility 	minSpeed 	0.25653830819507
scalar SERVitESScenario.node[25].veinsmobility 	maxSpeed 	10.0818408014
scalar SERVitESScenario.node[25].veinsmobility 	totalDistance 	359.43830844319
scalar SERVitESScenario.node[25].veinsmobility 	totalCO2Emission 	98.07730491058
scalar SERVitESScenario.node[27].appl 	"Avg CH Duration" 	0
scalar SERVitESScenario.node[27].appl 	"Avg MV Duration" 	65
scalar SERVitESScenario.node[27].appl 	"Avg GW Duration" 	0
scalar SERVitESScenario.node[27].appl 	"Avg Service Availability" 	406
scalar SERVitESScenario.node[27].appl 	reqNumber 	0
scalar SERVitESScenario.node[27].appl 	"response number" 	0
scalar SERVitESScenario.node[27].appl 	"use resource" 	0
scalar SERVitESScenario.node[27].appl 	requestHelp 	0
scalar SERVitESScenario.node[27].appl 	"Res Ready" 	0
scalar SERVitESScenario.node[27].appl 	"Service Searching TIME MIN " 	1
scalar SERVitESScenario.node[27].appl 	"Service Searching TIME MAX " 	0
scalar SERVitESScenario.node[27].appl 	"join cluster " 	1
scalar SERVitESScenario.node[27].appl 	overheadCluster 	1
scalar SERVitESScenario.node[27].appl 	overheadService 	0
scalar SERVitESScenario.node[27].appl 	overheadBeacon 	14
scalar SERVitESScenario.node[27].nic.phy80211p 	busyTime 	0.000304082365257
scalar SERVitESScenario.node[27].nic.mac1609_4 	ReceivedUnicastPackets 	0
scalar SERVitESScenario.node[27].nic.mac1609_4 	ReceivedBroadcasts 	103
scalar SERVitESScenario.node[27].nic.mac1609_4 	SentPackets 	15
scalar SERVitESScenario.node[27].nic.mac1609_4 	SNIRLostPackets 	0
scalar SERVitESScenario.node[27].nic.mac1609_4 	RXTXLostPackets 	0
scalar SERVitESScenario.node[27].nic.mac1609_4 	TotalLostPackets 	0
scalar SERVitESScenario.node[27].nic.mac1609_4 	DroppedPacketsInMac 	0
scalar SERVitESScenario.node[27].nic.mac1609_4 	TooLittleTime 	0
scalar SERVitESScenario.node[27].nic.mac1609_4 	TimesIntoBackoff 	15
scalar SERVitESScenario.node[27].nic.mac1609_4 	SlotsBackoff 	60
scalar SERVitESScenario.node[27].nic.mac1609_4 	NumInternalContention 	0
scalar SERVitESScenario.node[27].nic.mac1609_4 	totalBusyTime 	0.014175
scalar SERVitESScenario.node[27].veinsmobility 	startTime 	18.1
scalar SERVitESScenario.node[27].veinsmobility 	totalTime 	40.6
scalar SERVitESScenario.node[27].veinsmobility 	stopTime 	58.746881937904
scalar SERVitESScenario.node[27].veinsmobility 	minSpeed 	0.25535069261491
scalar SERVitESScenario.node[27].veinsmobility 	maxSpeed 	10.125307015362
scalar SERVitESScenario.node[27].veinsmobility 	totalDistance 	364.53017299835
scalar SERVitESScenario.node[27].veinsmobility 	totalCO2Emission 	87.267011857255
scalar SERVitESScenario.node[28].appl 	"Avg CH Duration" 	0
scalar SERVitESScenario.node[28].appl 	"Avg MV Duration" 	65
scalar SERVitESScenario.node[28].appl 	"Avg GW Duration" 	0
scalar SERVitESScenario.node[28].appl 	"Avg Service Availability" 	385
scalar SERVitESScenario.node[28].appl 	reqNumber 	1
scalar SERVitESScenario.node[28].appl 	"response number" 	1
scalar SERVitESScenario.node[28].appl 	"use resource" 	1
scalar SERVitESScenario.node[28].appl 	requestHelp 	0
scalar SERVitESScenario.node[28].appl 	"Res Ready" 	1
scalar SERVitESScenario.node[28].appl 	"Service Searching TIME MIN " 	0.001934783308
scalar SERVitESScenario.node[28].appl 	"Service Searching TIME MAX " 	0.001934783308
scalar SERVitESScenario.node[28].appl 	"join cluster " 	1
scalar SERVitESScenario.node[28].appl 	overheadCluster 	1
scalar SERVitESScenario.node[28].appl 	overheadService 	3
scalar SERVitESScenario.node[28].appl 	overheadBeacon 	14
scalar SERVitESScenario.node[28].nic.phy80211p 	busyTime 	0.00036925980769256
scalar SERVitESScenario.node[28].nic.mac1609_4 	ReceivedUnicastPackets 	0
scalar SERVitESScenario.node[28].nic.mac1609_4 	ReceivedBroadcasts 	122
scalar SERVitESScenario.node[28].nic.mac1609_4 	SentPackets 	18
scalar SERVitESScenario.node[28].nic.mac1609_4 	SNIRLostPackets 	0
scalar SERVitESScenario.node[28].nic.mac1609_4 	RXTXLostPackets 	0
scalar SERVitESScenario.node[28].nic.mac1609_4 	TotalLostPackets 	0
scalar SERVitESScenario.node[28].nic.mac1609_4 	DroppedPacketsInMac 	0
scalar SERVitESScenario.node[28].nic.mac1609_4 	TooLittleTime 	0
scalar SERVitESScenario.node[28].nic.mac1609_4 	TimesIntoBackoff 	18
scalar SERVitESScenario.node[28].nic.mac1609_4 	SlotsBackoff 	62
scalar SERVitESScenario.node[28].nic.mac1609_4 	NumInternalContention 	0
scalar SERVitESScenario.node[28].nic.mac1609_4 	totalBusyTime 	0.016818
scalar SERVitESScenario.node[28].veinsmobility 	startTime 	19.1
scalar SERVitESScenario.node[28].veinsmobility 	totalTime 	39.6
scalar SERVitESScenario.node[28].veinsmobility 	stopTime 	58.746881937904
scalar SERVitESScenario.node[28].veinsmobility 	minSpeed 	0.25033409409295
scalar SERVitESScenario.node[28].veinsmobility 	maxSpeed 	10.008450916648
scalar SERVitESScenario.node[28].veinsmobility 	totalDistance 	338.14219924035
scalar SERVitESScenario.node[28].veinsmobility 	totalCO2Emission 	94.561484214364
scalar SERVitESScenario.node[31].appl 	"Avg CH Duration" 	0
scalar SERVitESScenario.node[31].appl 	"Avg MV Duration" 	65
scalar SERVitESScenario.node[31].appl 	"Avg GW Duration" 	0
scalar SERVitESScenario.node[31].appl 	"Avg Service Availability" 	376
scalar SERVitESScenario.node[31].appl 	reqNumber 	0
scalar SERVitESScenario.node[31].appl 	"response number" 	0
scalar SERVitESScenario.node[31].appl 	"use resource" 	0
scalar SERVitESScenario.node[31].appl 	requestHelp 	0
scalar SERVitESScenario.node[31].appl 	"Res Ready" 	0
scalar SERVitESScenario.node[31].appl 	"Service Searching TIME MIN " 	1
scalar SERVitESScenario.node[31].appl 	"Service Searching TIME MAX " 	0
scalar SERVitESScenario.node[31].appl 	"join cluster " 	1
scalar SERVitESScenario.node[31].appl 	overheadCluster 	2
scalar SERVitESScenario.node[31].appl 	overheadService 	0
scalar SERVitESScenario.node[31].appl 	overheadBeacon 	14
scalar SERVitESScenario.node[31].nic.phy80211p 	busyTime 	0.00040800191700697
scalar SERVitESScenario.node[31].nic.mac1609_4 	ReceivedUnicastPackets 	0
scalar SERVitESScenario.node[31].nic.mac1609_4 	ReceivedBroadcasts 	124
scalar SERVitESScenario.node[31].nic.mac1609_4 	SentPackets 	16
scalar SERVitESScenario.node[31].nic.mac1609_4 	SNIRLostPackets 	4
scalar SERVitESScenario.node[31].nic.mac1609_4 	RXTXLostPackets 	0
scalar SERVitESScenario.node[31].nic.mac1609_4 	TotalLostPackets 	4
scalar SERVitESScenario.node[31].nic.mac1609_4 	DroppedPacketsInMac 	0
scalar SERVitESScenario.node[31].nic.mac1609_4 	TooLittleTime 	0
scalar SERVitESScenario.node[31].nic.mac1609_4 	TimesIntoBackoff 	17
scalar SERVitESScenario.node[31].nic.mac1609_4 	SlotsBackoff 	58
scalar SERVitESScenario.node[31].nic.mac1609_4 	NumInternalContention 	0
scalar SERVitESScenario.node[31].nic.mac1609_4 	totalBusyTime 	0.017056
scalar SERVitESScenario.node[31].veinsmobility 	startTime 	21.1
scalar SERVitESScenario.node[31].veinsmobility 	totalTime 	37.6
scalar SERVitESScenario.node[31].veinsmobility 	stopTime 	58.746881937904
scalar SERVitESScenario.node[31].veinsmobility 	minSpeed 	0.25126803186163
scalar SERVitESScenario.node[31].veinsmobility 	maxSpeed 	10.066226757912
scalar SERVitESScenario.node[31].veinsmobility 	totalDistance 	336.692628694
scalar SERVitESScenario.node[31].veinsmobility 	totalCO2Emission 	82.868304716656
scalar SERVitESScenario.node[33].appl 	"Avg CH Duration" 	0
scalar SERVitESScenario.node[33].appl 	"Avg MV Duration" 	155
scalar SERVitESScenario.node[33].appl 	"Avg GW Duration" 	0
scalar SERVitESScenario.node[33].appl 	"Avg Service Availability" 	346
scalar SERVitESScenario.node[33].appl 	reqNumber 	1
scalar SERVitESScenario.node[33].appl 	"response number" 	1
scalar SERVitESScenario.node[33].appl 	"use resource" 	1
scalar SERVitESScenario.node[33].appl 	requestHelp 	0
scalar SERVitESScenario.node[33].appl 	"Res Ready" 	2
scalar SERVitESScenario.node[33].appl 	"Service Searching TIME MIN " 	0.004655713094
scalar SERVitESScenario.node[33].appl 	"Service Searching TIME MAX " 	52.629311478472
scalar SERVitESScenario.node[33].appl 	"join cluster " 	1
scalar SERVitESScenario.node[33].appl 	overheadCluster 	1
scalar SERVitESScenario.node[33].appl 	overheadService 	4
scalar SERVitESScenario.node[33].appl 	overheadBeacon 	32
scalar SERVitESScenario.node[33].nic.phy80211p 	busyTime 	0.00076416220771992
scalar SERVitESScenario.node[33].nic.mac1609_4 	ReceivedUnicastPackets 	0
scalar SERVitESScenario.node[33].nic.mac1609_4 	ReceivedBroadcasts 	227
scalar SERVitESScenario.node[33].nic.mac1609_4 	SentPackets 	37
scalar SERVitESScenario.node[33].nic.mac1609_4 	SNIRLostPackets 	0
scalar SERVitESScenario.node[33].nic.mac1609_4 	RXTXLostPackets 	0
scalar SERVitESScenario.node[33].nic.mac1609_4 	TotalLostPackets 	0
scalar SERVitESScenario.node[33].nic.mac1609_4 	DroppedPacketsInMac 	0
scalar SERVitESScenario.node[33].nic.mac1609_4 	TooLittleTime 	0
scalar SERVitESScenario.node[33].nic.mac1609_4 	TimesIntoBackoff 	37
scalar SERVitESScenario.node[33].nic.mac1609_4 	SlotsBackoff 	138
scalar SERVitESScenario.node[33].nic.mac1609_4 	NumInternalContention 	0
scalar SERVitESScenario.node[33].nic.mac1609_4 	totalBusyTime 	0.031717
scalar SERVitESScenario.node[33].veinsmobility 	startTime 	23.1
scalar SERVitESScenario.node[33].veinsmobility 	totalTime 	35.6
scalar SERVitESScenario.node[33].veinsmobility 	stopTime 	58.746881937904
scalar SERVitESScenario.node[33].veinsmobility 	minSpeed 	0.24776128924126
scalar SERVitESScenario.node[33].veinsmobility 	maxSpeed 	10.093401309548
scalar SERVitESScenario.node[33].veinsmobility 	totalDistance 	330.2429711436
scalar SERVitESScenario.node[33].veinsmobility 	totalCO2Emission 	70.825904646722
scalar SERVitESScenario.node[37].appl 	"Avg CH Duration" 	0
scalar SERVitESScenario.node[37].appl 	"Avg MV Duration" 	155
scalar SERVitESScenario.node[37].appl 	"Avg GW Duration" 	0
scalar SERVitESScenario.node[37].appl 	"Avg Service Availability" 	319
scalar SERVitESScenario.node[37].appl 	reqNumber 	1
scalar SERVitESScenario.node[37].appl 	"response number" 	3
scalar SERVitESScenario.node[37].appl 	"use resource" 	0
scalar SERVitESScenario.node[37].appl 	requestHelp 	0
scalar SERVitESScenario.node[37].appl 	"Res Ready" 	3
scalar SERVitESScenario.node[37].appl 	"Service Searching TIME MIN " 	0.005306137683
scalar SERVitESScenario.node[37].appl 	"Service Searching TIME MAX " 	49.8012094637
scalar SERVitESScenario.node[37].appl 	"join cluster " 	1
scalar SERVitESScenario.node[37].appl 	overheadCluster 	2
scalar SERVitESScenario.node[37].appl 	overheadService 	7
scalar SERVitESScenario.node[37].appl 	overheadBeacon 	32
scalar SERVitESScenario.node[37].nic.phy80211p 	busyTime 	0.0012276823274037
scalar SERVitESScenario.node[37].nic.mac1609_4 	ReceivedUnicastPackets 	0
scalar SERVitESScenario.node[37].nic.mac1609_4 	ReceivedBroadcasts 	334
scalar SERVitESScenario.node[37].nic.mac1609_4 	SentPackets 	41
scalar SERVitESScenario.node[37].nic.mac1609_4 	SNIRLostPackets 	0
scalar SERVitESScenario.node[37].nic.mac1609_4 	RXTXLostPackets 	0
scalar SERVitESScenario.node[37].nic.mac1609_4 	TotalLostPackets 	0
scalar SERVitESScenario.node[37].nic.mac1609_4 	DroppedPacketsInMac 	0
scalar SERVitESScenario.node[37].nic.mac1609_4 	TooLittleTime 	0
scalar SERVitESScenario.node[37].nic.mac1609_4 	TimesIntoBackoff 	78
scalar SERVitESScenario.node[37].nic.mac1609_4 	SlotsBackoff 	295
scalar SERVitESScenario.node[37].nic.mac1609_4 	NumInternalContention 	0
scalar SERVitESScenario.node[37].nic.mac1609_4 	totalBusyTime 	0.045041
scalar SERVitESScenario.node[37].veinsmobility 	startTime 	26.1
scalar SERVitESScenario.node[37].veinsmobility 	totalTime 	32.6
scalar SERVitESScenario.node[37].veinsmobility 	stopTime 	58.746881937904
scalar SERVitESScenario.node[37].veinsmobility 	minSpeed 	0.24770968709327
scalar SERVitESScenario.node[37].veinsmobility 	maxSpeed 	10.008091207064
scalar SERVitESScenario.node[37].veinsmobility 	totalDistance 	294.43397335029
scalar SERVitESScenario.node[37].veinsmobility 	totalCO2Emission 	64.239654552341
scalar SERVitESScenario.node[38].appl 	"Avg CH Duration" 	0
scalar SERVitESScenario.node[38].appl 	"Avg MV Duration" 	65
scalar SERVitESScenario.node[38].appl 	"Avg GW Duration" 	0
scalar SERVitESScenario.node[38].appl 	"Avg Service Availability" 	314
scalar SERVitESScenario.node[38].appl 	reqNumber 	0
scalar SERVitESScenario.node[38].appl 	"response number" 	2
scalar SERVitESScenario.node[38].appl 	"use resource" 	0
scalar SERVitESScenario.node[38].appl 	requestHelp 	0
scalar SERVitESScenario.node[38].appl 	"Res Ready" 	0
scalar SERVitESScenario.node[38].appl 	"Service Searching TIME MIN " 	1
scalar SERVitESScenario.node[38].appl 	"Service Searching TIME MAX " 	0
scalar SERVitESScenario.node[38].appl 	"join cluster " 	1
scalar SERVitESScenario.node[38].appl 	overheadCluster 	1
scalar SERVitESScenario.node[38].appl 	overheadService 	2
scalar SERVitESScenario.node[38].appl 	overheadBeacon 	14
scalar SERVitESScenario.node[38].nic.phy80211p 	busyTime 	0.0004474374451102
scalar SERVitESScenario.node[38].nic.mac1609_4 	ReceivedUnicastPackets 	0
scalar SERVitESScenario.node[38].nic.mac1609_4 	ReceivedBroadcasts 	118
scalar SERVitESScenario.node[38].nic.mac1609_4 	SentPackets 	17
scalar SERVitESScenario.node[38].nic.mac1609_4 	SNIRLostPackets 	0
scalar SERVitESScenario.node[38].nic.mac1609_4 	RXTXLostPackets 	0
scalar SERVitESScenario.node[38].nic.mac1609_4 	TotalLostPackets 	0
scalar SERVitESScenario.node[38].nic.mac1609_4 	DroppedPacketsInMac 	0
scalar SERVitESScenario.node[38].nic.mac1609_4 	TooLittleTime 	0
scalar SERVitESScenario.node[38].nic.mac1609_4 	TimesIntoBackoff 	17
scalar SERVitESScenario.node[38].nic.mac1609_4 	SlotsBackoff 	58
scalar SERVitESScenario.node[38].nic.mac1609_4 	NumInternalContention 	0
scalar SERVitESScenario.node[38].nic.mac1609_4 	totalBusyTime 	0.016217
scalar SERVitESScenario.node[38].veinsmobility 	startTime 	27.1
scalar SERVitESScenario.node[38].veinsmobility 	totalTime 	31.6
scalar SERVitESScenario.node[38].veinsmobility 	stopTime 	58.746881937904
scalar SERVitESScenario.node[38].veinsmobility 	minSpeed 	0.25980233089486
scalar SERVitESScenario.node[38].veinsmobility 	maxSpeed 	10.128846043454
scalar SERVitESScenario.node[38].veinsmobility 	totalDistance 	258.11845387506
scalar SERVitESScenario.node[38].veinsmobility 	totalCO2Emission 	81.242894085067
scalar SERVitESScenario.node[40].appl 	"Avg CH Duration" 	0
scalar SERVitESScenario.node[40].appl 	"Avg MV Duration" 	0
scalar SERVitESScenario.node[40].appl 	"Avg GW Duration" 	0
scalar SERVitESScenario.node[40].appl 	"Avg Service Availability" 	306
scalar SERVitESScenario.node[40].appl 	reqNumber 	0
scalar SERVitESScenario.node[40].appl 	"response number" 	0
scalar SERVitESScenario.node[40].appl 	"use resource" 	0
scalar SERVitESScenario.node[40].appl 	requestHelp 	0
scalar SERVitESScenario.node[40].appl 	"Res Ready" 	0
scalar SERVitESScenario.node[40].appl 	"Service Searching TIME MIN " 	1
scalar SERVitESScenario.node[40].appl 	"Service Searching TIME MAX " 	0
scalar SERVitESScenario.node[40].appl 	"join cluster " 	0
scalar SERVitESScenario.node[40].appl 	overheadCluster 	0
scalar SERVitESScenario.node[40].appl 	overheadService 	0
scalar SERVitESScenario.node[40].appl 	overheadBeacon 	0
scalar SERVitESScenario.node[40].nic.phy80211p 	busyTime 	0.00036023240544891
scalar SERVitESScenario.node[40].nic.mac1609_4 	ReceivedUnicastPackets 	0
scalar SERVitESScenario.node[40].nic.mac1609_4 	ReceivedBroadcasts 	92
scalar SERVitESScenario.node[40].nic.mac1609_4 	SentPackets 	0
scalar SERVitESScenario.node[40].nic.mac1609_4 	SNIRLostPackets 	0
scalar SERVitESScenario.node[40].nic.mac1609_4 	RXTXLostPackets 	0
scalar SERVitESScenario.node[40].nic.mac1609_4 	TotalLostPackets 	0
scalar SERVitESScenario.node[40].nic.mac1609_4 	DroppedPacketsInMac 	0
scalar SERVitESScenario.node[40].nic.mac1609_4 	TooLittleTime 	0
scalar SERVitESScenario.node[40].nic.mac1609_4 	TimesIntoBackoff 	0
scalar SERVitESScenario.node[40].nic.mac1609_4 	SlotsBackoff 	0
scalar SERVitESScenario.node[40].nic.mac1609_4 	NumInternalContention 	0
scalar SERVitESScenario.node[40].nic.mac1609_4 	totalBusyTime 	0.01104
scalar SERVitESScenario.node[40].veinsmobility 	startTime 	28.1
scalar SERVitESScenario.node[40].veinsmobility 	totalTime 	30.6
scalar SERVitESScenario.node[40].veinsmobility 	stopTime 	58.746881937904
scalar SERVitESScenario.node[40].veinsmobility 	minSpeed 	0.25092710203491
scalar SERVitESScenario.node[40].veinsmobility 	maxSpeed 	10.109635150913
scalar SERVitESScenario.node[40].veinsmobility 	totalDistance 	282.61083255937
scalar SERVitESScenario.node[40].veinsmobility 	totalCO2Emission 	62.464407047943
scalar SERVitESScenario.node[42].appl 	"Avg CH Duration" 	0
scalar SERVitESScenario.node[42].appl 	"Avg MV Duration" 	155
scalar SERVitESScenario.node[42].appl 	"Avg GW Duration" 	0
scalar SERVitESScenario.node[42].appl 	"Avg Service Availability" 	291
scalar SERVitESScenario.node[42].appl 	reqNumber 	0
scalar SERVitESScenario.node[42].appl 	"response number" 	1
scalar SERVitESScenario.node[42].appl 	"use resource" 	1
scalar SERVitESScenario.node[42].appl 	requestHelp 	0
scalar SERVitESScenario.node[42].appl 	"Res Ready" 	0
scalar SERVitESScenario.node[42].appl 	"Service Searching TIME MIN " 	1
scalar SERVitESScenario.node[42].appl 	"Service Searching TIME MAX " 	0
scalar SERVitESScenario.node[42].appl 	"join cluster " 	1
scalar SERVitESScenario.node[42].appl 	overheadCluster 	1
scalar SERVitESScenario.node[42].appl 	overheadService 	1
scalar SERVitESScenario.node[42].appl 	overheadBeacon 	32
scalar SERVitESScenario.node[42].nic.phy80211p 	busyTime 	0.000611194122807
scalar SERVitESScenario.node[42].nic.mac1609_4 	ReceivedUnicastPackets 	0
scalar SERVitESScenario.node[42].nic.mac1609_4 	ReceivedBroadcasts 	151
scalar SERVitESScenario.node[42].nic.mac1609_4 	SentPackets 	34
scalar SERVitESScenario.node[42].nic.mac1609_4 	SNIRLostPackets 	0
scalar SERVitESScenario.node[42].nic.mac1609_4 	RXTXLostPackets 	0
scalar SERVitESScenario.node[42].nic.mac1609_4 	TotalLostPackets 	0
scalar SERVitESScenario.node[42].nic.mac1609_4 	DroppedPacketsInMac 	0
scalar SERVitESScenario.node[42].nic.mac1609_4 	TooLittleTime 	0
scalar SERVitESScenario.node[42].nic.mac1609_4 	TimesIntoBackoff 	34
scalar SERVitESScenario.node[42].nic.mac1609_4 	SlotsBackoff 	135
scalar SERVitESScenario.node[42].nic.mac1609_4 	NumInternalContention 	0
scalar SERVitESScenario.node[42].nic.mac1609_4 	totalBusyTime 	0.022234
scalar SERVitESScenario.node[42].veinsmobility 	startTime 	29.1
scalar SERVitESScenario.node[42].veinsmobility 	totalTime 	29.6
scalar SERVitESScenario.node[42].veinsmobility 	stopTime 	58.746881937904
scalar SERVitESScenario.node[42].veinsmobility 	minSpeed 	0.25530269117048
scalar SERVitESScenario.node[42].veinsmobility 	maxSpeed 	10.18888162952
scalar SERVitESScenario.node[42].veinsmobility 	totalDistance 	240.43443776814
scalar SERVitESScenario.node[42].veinsmobility 	totalCO2Emission 	73.441676418449
scalar SERVitESScenario.node[3].appl 	"Avg CH Duration" 	155
scalar SERVitESScenario.node[3].appl 	"Avg MV Duration" 	0
scalar SERVitESScenario.node[3].appl 	"Avg GW Duration" 	0
scalar SERVitESScenario.node[3].appl 	"Avg Service Availability" 	556
scalar SERVitESScenario.node[3].appl 	reqNumber 	0
scalar SERVitESScenario.node[3].appl 	"response number" 	0
scalar SERVitESScenario.node[3].appl 	"use resource" 	0
scalar SERVitESScenario.node[3].appl 	requestHelp 	0
scalar SERVitESScenario.node[3].appl 	"Res Ready" 	0
scalar SERVitESScenario.node[3].appl 	"Service Searching TIME MIN " 	1
scalar SERVitESScenario.node[3].appl 	"Service Searching TIME MAX " 	0
scalar SERVitESScenario.node[3].appl 	"join cluster " 	1
scalar SERVitESScenario.node[3].appl 	overheadCluster 	3
scalar SERVitESScenario.node[3].appl 	overheadService 	0
scalar SERVitESScenario.node[3].appl 	overheadBeacon 	1
scalar SERVitESScenario.node[3].nic.phy80211p 	busyTime 	0.00072456889938582
scalar SERVitESScenario.node[3].nic.mac1609_4 	ReceivedUnicastPackets 	0
scalar SERVitESScenario.node[3].nic.mac1609_4 	ReceivedBroadcasts 	332
scalar SERVitESScenario.node[3].nic.mac1609_4 	SentPackets 	14
scalar SERVitESScenario.node[3].nic.mac1609_4 	SNIRLostPackets 	4
scalar SERVitESScenario.node[3].nic.mac1609_4 	RXTXLostPackets 	0
scalar SERVitESScenario.node[3].nic.mac1609_4 	TotalLostPackets 	4
scalar SERVitESScenario.node[3].nic.mac1609_4 	DroppedPacketsInMac 	0
scalar SERVitESScenario.node[3].nic.mac1609_4 	TooLittleTime 	0
scalar SERVitESScenario.node[3].nic.mac1609_4 	TimesIntoBackoff 	14
scalar SERVitESScenario.node[3].nic.mac1609_4 	SlotsBackoff 	60
scalar SERVitESScenario.node[3].nic.mac1609_4 	NumInternalContention 	0
scalar SERVitESScenario.node[3].nic.mac1609_4 	totalBusyTime 	0.041774
scalar SERVitESScenario.node[3].veinsmobility 	startTime 	3.1
scalar SERVitESScenario.node[3].veinsmobility 	totalTime 	55.6
scalar SERVitESScenario.node[3].veinsmobility 	stopTime 	58.746881937904
scalar SERVitESScenario.node[3].veinsmobility 	minSpeed 	0.25384309547977
scalar SERVitESScenario.node[3].veinsmobility 	maxSpeed 	10.13083232277
scalar SERVitESScenario.node[3].veinsmobility 	totalDistance 	495.75602573069
scalar SERVitESScenario.node[3].veinsmobility 	totalCO2Emission 	116.24160514805
scalar SERVitESScenario.node[44].appl 	"Avg CH Duration" 	0
scalar SERVitESScenario.node[44].appl 	"Avg MV Duration" 	65
scalar SERVitESScenario.node[44].appl 	"Avg GW Duration" 	0
scalar SERVitESScenario.node[44].appl 	"Avg Service Availability" 	274
scalar SERVitESScenario.node[44].appl 	reqNumber 	0
scalar SERVitESScenario.node[44].appl 	"response number" 	1
scalar SERVitESScenario.node[44].appl 	"use resource" 	1
scalar SERVitESScenario.node[44].appl 	requestHelp 	0
scalar SERVitESScenario.node[44].appl 	"Res Ready" 	0
scalar SERVitESScenario.node[44].appl 	"Service Searching TIME MIN " 	1
scalar SERVitESScenario.node[44].appl 	"Service Searching TIME MAX " 	0
scalar SERVitESScenario.node[44].appl 	"join cluster " 	1
scalar SERVitESScenario.node[44].appl 	overheadCluster 	2
scalar SERVitESScenario.node[44].appl 	overheadService 	1
scalar SERVitESScenario.node[44].appl 	overheadBeacon 	14
scalar SERVitESScenario.node[44].nic.phy80211p 	busyTime 	0.00068145116842888
scalar SERVitESScenario.node[44].nic.mac1609_4 	ReceivedUnicastPackets 	0
scalar SERVitESScenario.node[44].nic.mac1609_4 	ReceivedBroadcasts 	151
scalar SERVitESScenario.node[44].nic.mac1609_4 	SentPackets 	17
scalar SERVitESScenario.node[44].nic.mac1609_4 	SNIRLostPackets 	6
scalar SERVitESScenario.node[44].nic.mac1609_4 	RXTXLostPackets 	0
scalar SERVitESScenario.node[44].nic.mac1609_4 	TotalLostPackets 	6
scalar SERVitESScenario.node[44].nic.mac1609_4 	DroppedPacketsInMac 	0
scalar SERVitESScenario.node[44].nic.mac1609_4 	TooLittleTime 	0
scalar SERVitESScenario.node[44].nic.mac1609_4 	TimesIntoBackoff 	17
scalar SERVitESScenario.node[44].nic.mac1609_4 	SlotsBackoff 	71
scalar SERVitESScenario.node[44].nic.mac1609_4 	NumInternalContention 	0
scalar SERVitESScenario.node[44].nic.mac1609_4 	totalBusyTime 	0.020537
scalar SERVitESScenario.node[44].veinsmobility 	startTime 	31.1
scalar SERVitESScenario.node[44].veinsmobility 	totalTime 	27.6
scalar SERVitESScenario.node[44].veinsmobility 	stopTime 	58.746881937904
scalar SERVitESScenario.node[44].veinsmobility 	minSpeed 	0.25984126320994
scalar SERVitESScenario.node[44].veinsmobility 	maxSpeed 	10.141562250505
scalar SERVitESScenario.node[44].veinsmobility 	totalDistance 	228.14823467613
scalar SERVitESScenario.node[44].veinsmobility 	totalCO2Emission 	64.566448179216
scalar SERVitESScenario.node[46].appl 	"Avg CH Duration" 	0
scalar SERVitESScenario.node[46].appl 	"Avg MV Duration" 	85
scalar SERVitESScenario.node[46].appl 	"Avg GW Duration" 	0
scalar SERVitESScenario.node[46].appl 	"Avg Service Availability" 	255
scalar SERVitESScenario.node[46].appl 	reqNumber 	1
scalar SERVitESScenario.node[46].appl 	"response number" 	1
scalar SERVitESScenario.node[46].appl 	"use resource" 	1
scalar SERVitESScenario.node[46].appl 	requestHelp 	0
scalar SERVitESScenario.node[46].appl 	"Res Ready" 	1
scalar SERVitESScenario.node[46].appl 	"Service Searching TIME MIN " 	0.001933331678
scalar SERVitESScenario.node[46].appl 	"Service Searching TIME MAX " 	0.001933331678
scalar SERVitESScenario.node[46].appl 	"join cluster " 	1
scalar SERVitESScenario.node[46].appl 	overheadCluster 	2
scalar SERVitESScenario.node[46].appl 	overheadService 	3
scalar SERVitESScenario.node[46].appl 	overheadBeacon 	18
scalar SERVitESScenario.node[46].nic.phy80211p 	busyTime 	0.00031523388063094
scalar SERVitESScenario.node[46].nic.mac1609_4 	ReceivedUnicastPackets 	0
scalar SERVitESScenario.node[46].nic.mac1609_4 	ReceivedBroadcasts 	68
scalar SERVitESScenario.node[46].nic.mac1609_4 	SentPackets 	23
scalar SERVitESScenario.node[46].nic.mac1609_4 	SNIRLostPackets 	2
scalar SERVitESScenario.node[46].nic.mac1609_4 	RXTXLostPackets 	0
scalar SERVitESScenario.node[46].nic.mac1609_4 	TotalLostPackets 	2
scalar SERVitESScenario.node[46].nic.mac1609_4 	DroppedPacketsInMac 	0
scalar SERVitESScenario.node[46].nic.mac1609_4 	TooLittleTime 	0
scalar SERVitESScenario.node[46].nic.mac1609_4 	TimesIntoBackoff 	23
scalar SERVitESScenario.node[46].nic.mac1609_4 	SlotsBackoff 	93
scalar SERVitESScenario.node[46].nic.mac1609_4 	NumInternalContention 	0
scalar SERVitESScenario.node[46].nic.mac1609_4 	totalBusyTime 	0.011063
scalar SERVitESScenario.node[46].veinsmobility 	startTime 	32.1
scalar SERVitESScenario.node[46].veinsmobility 	totalTime 	26.6
scalar SERVitESScenario.node[46].veinsmobility 	stopTime 	58.746881937904
scalar SERVitESScenario.node[46].veinsmobility 	minSpeed 	0.25432722294959
scalar SERVitESScenario.node[46].veinsmobility 	maxSpeed 	10.075183896367
scalar SERVitESScenario.node[46].veinsmobility 	totalDistance 	242.70988443458
scalar SERVitESScenario.node[46].veinsmobility 	totalCO2Emission 	55.650306076963
scalar SERVitESScenario.node[48].appl 	"Avg CH Duration" 	0
scalar SERVitESScenario.node[48].appl 	"Avg MV Duration" 	155
scalar SERVitESScenario.node[48].appl 	"Avg GW Duration" 	0
scalar SERVitESScenario.node[48].appl 	"Avg Service Availability" 	241
scalar SERVitESScenario.node[48].appl 	reqNumber 	0
scalar SERVitESScenario.node[48].appl 	"response number" 	3
scalar SERVitESScenario.node[48].appl 	"use resource" 	3
scalar SERVitESScenario.node[48].appl 	requestHelp 	0
scalar SERVitESScenario.node[48].appl 	"Res Ready" 	0
scalar SERVitESScenario.node[48].appl 	"Service Searching TIME MIN " 	1
scalar SERVitESScenario.node[48].appl 	"Service Searching TIME MAX " 	0
scalar SERVitESScenario.node[48].appl 	"join cluster " 	0
scalar SERVitESScenario.node[48].appl 	overheadCluster 	0
scalar SERVitESScenario.node[48].appl 	overheadService 	3
scalar SERVitESScenario.node[48].appl 	overheadBeacon 	0
scalar SERVitESScenario.node[48].nic.phy80211p 	busyTime 	0.001413037268536
scalar SERVitESScenario.node[48].nic.mac1609_4 	ReceivedUnicastPackets 	0
scalar SERVitESScenario.node[48].nic.mac1609_4 	ReceivedBroadcasts 	302
scalar SERVitESScenario.node[48].nic.mac1609_4 	SentPackets 	3
scalar SERVitESScenario.node[48].nic.mac1609_4 	SNIRLostPackets 	0
scalar SERVitESScenario.node[48].nic.mac1609_4 	RXTXLostPackets 	0
scalar SERVitESScenario.node[48].nic.mac1609_4 	TotalLostPackets 	0
scalar SERVitESScenario.node[48].nic.mac1609_4 	DroppedPacketsInMac 	0
scalar SERVitESScenario.node[48].nic.mac1609_4 	TooLittleTime 	0
scalar SERVitESScenario.node[48].nic.mac1609_4 	TimesIntoBackoff 	3
scalar SERVitESScenario.node[48].nic.mac1609_4 	SlotsBackoff 	14
scalar SERVitESScenario.node[48].nic.mac1609_4 	NumInternalContention 	0
scalar SERVitESScenario.node[48].nic.mac1609_4 	totalBusyTime 	0.036603
scalar SERVitESScenario.node[48].veinsmobility 	startTime 	33.1
scalar SERVitESScenario.node[48].veinsmobility 	totalTime 	25.6
scalar SERVitESScenario.node[48].veinsmobility 	stopTime 	58.746881937904
scalar SERVitESScenario.node[48].veinsmobility 	minSpeed 	0.25810245747701
scalar SERVitESScenario.node[48].veinsmobility 	maxSpeed 	10.000413313105
scalar SERVitESScenario.node[48].veinsmobility 	totalDistance 	196.69837010285
scalar SERVitESScenario.node[48].veinsmobility 	totalCO2Emission 	65.203398137125
scalar SERVitESScenario.node[49].appl 	"Avg CH Duration" 	0
scalar SERVitESScenario.node[49].appl 	"Avg MV Duration" 	155
scalar SERVitESScenario.node[49].appl 	"Avg GW Duration" 	0
scalar SERVitESScenario.node[49].appl 	"Avg Service Availability" 	240
scalar SERVitESScenario.node[49].appl 	reqNumber 	1
scalar SERVitESScenario.node[49].appl 	"response number" 	3
scalar SERVitESScenario.node[49].appl 	"use resource" 	0
scalar SERVitESScenario.node[49].appl 	requestHelp 	0
scalar SERVitESScenario.node[49].appl 	"Res Ready" 	1
scalar SERVitESScenario.node[49].appl 	"Service Searching TIME MIN " 	0.004076355403
scalar SERVitESScenario.node[49].appl 	"Service Searching TIME MAX " 	0.004076355403
scalar SERVitESScenario.node[49].appl 	"join cluster " 	1
scalar SERVitESScenario.node[49].appl 	overheadCluster 	1
scalar SERVitESScenario.node[49].appl 	overheadService 	5
scalar SERVitESScenario.node[49].appl 	overheadBeacon 	32
scalar SERVitESScenario.node[49].nic.phy80211p 	busyTime 	0.0017186758189828
scalar SERVitESScenario.node[49].nic.mac1609_4 	ReceivedUnicastPackets 	0
scalar SERVitESScenario.node[49].nic.mac1609_4 	ReceivedBroadcasts 	353
scalar SERVitESScenario.node[49].nic.mac1609_4 	SentPackets 	38
scalar SERVitESScenario.node[49].nic.mac1609_4 	SNIRLostPackets 	0
scalar SERVitESScenario.node[49].nic.mac1609_4 	RXTXLostPackets 	0
scalar SERVitESScenario.node[49].nic.mac1609_4 	TotalLostPackets 	0
scalar SERVitESScenario.node[49].nic.mac1609_4 	DroppedPacketsInMac 	0
scalar SERVitESScenario.node[49].nic.mac1609_4 	TooLittleTime 	0
scalar SERVitESScenario.node[49].nic.mac1609_4 	TimesIntoBackoff 	39
scalar SERVitESScenario.node[49].nic.mac1609_4 	SlotsBackoff 	132
scalar SERVitESScenario.node[49].nic.mac1609_4 	NumInternalContention 	0
scalar SERVitESScenario.node[49].nic.mac1609_4 	totalBusyTime 	0.046958
scalar SERVitESScenario.node[49].veinsmobility 	startTime 	34.1
scalar SERVitESScenario.node[49].veinsmobility 	totalTime 	24.6
scalar SERVitESScenario.node[49].veinsmobility 	stopTime 	58.746881937904
scalar SERVitESScenario.node[49].veinsmobility 	minSpeed 	0.24735096649639
scalar SERVitESScenario.node[49].veinsmobility 	maxSpeed 	10.088342478013
scalar SERVitESScenario.node[49].veinsmobility 	totalDistance 	205.81453719136
scalar SERVitESScenario.node[49].veinsmobility 	totalCO2Emission 	60.844822803042
scalar SERVitESScenario.node[51].appl 	"Avg CH Duration" 	0
scalar SERVitESScenario.node[51].appl 	"Avg MV Duration" 	155
scalar SERVitESScenario.node[51].appl 	"Avg GW Duration" 	0
scalar SERVitESScenario.node[51].appl 	"Avg Service Availability" 	235
scalar SERVitESScenario.node[51].appl 	reqNumber 	0
scalar SERVitESScenario.node[51].appl 	"response number" 	2
scalar SERVitESScenario.node[51].appl 	"use resource" 	0
scalar SERVitESScenario.node[51].appl 	requestHelp 	0
scalar SERVitESScenario.node[51].appl 	"Res Ready" 	0
scalar SERVitESScenario.node[51].appl 	"Service Searching TIME MIN " 	1
scalar SERVitESScenario.node[51].appl 	"Service Searching TIME MAX " 	0
scalar SERVitESScenario.node[51].appl 	"join cluster " 	1
scalar SERVitESScenario.node[51].appl 	overheadCluster 	1
scalar SERVitESScenario.node[51].appl 	overheadService 	2
scalar SERVitESScenario.node[51].appl 	overheadBeacon 	32
scalar SERVitESScenario.node[51].nic.phy80211p 	busyTime 	0.0012686662063429
scalar SERVitESScenario.node[51].nic.mac1609_4 	ReceivedUnicastPackets 	0
scalar SERVitESScenario.node[51].nic.mac1609_4 	ReceivedBroadcasts 	250
scalar SERVitESScenario.node[51].nic.mac1609_4 	SentPackets 	35
scalar SERVitESScenario.node[51].nic.mac1609_4 	SNIRLostPackets 	0
scalar SERVitESScenario.node[51].nic.mac1609_4 	RXTXLostPackets 	0
scalar SERVitESScenario.node[51].nic.mac1609_4 	TotalLostPackets 	0
scalar SERVitESScenario.node[51].nic.mac1609_4 	DroppedPacketsInMac 	0
scalar SERVitESScenario.node[51].nic.mac1609_4 	TooLittleTime 	0
scalar SERVitESScenario.node[51].nic.mac1609_4 	TimesIntoBackoff 	35
scalar SERVitESScenario.node[51].nic.mac1609_4 	SlotsBackoff 	132
scalar SERVitESScenario.node[51].nic.mac1609_4 	NumInternalContention 	0
scalar SERVitESScenario.node[51].nic.mac1609_4 	totalBusyTime 	0.034235
scalar SERVitESScenario.node[51].veinsmobility 	startTime 	35.1
scalar SERVitESScenario.node[51].veinsmobility 	totalTime 	23.6
scalar SERVitESScenario.node[51].veinsmobility 	stopTime 	58.746881937904
scalar SERVitESScenario.node[51].veinsmobility 	minSpeed 	0.24767114574672
scalar SERVitESScenario.node[51].veinsmobility 	maxSpeed 	10.193129471823
scalar SERVitESScenario.node[51].veinsmobility 	totalDistance 	196.43294601049
scalar SERVitESScenario.node[51].veinsmobility 	totalCO2Emission 	58.053197341355
scalar SERVitESScenario.node[53].appl 	"Avg CH Duration" 	0
scalar SERVitESScenario.node[53].appl 	"Avg MV Duration" 	0
scalar SERVitESScenario.node[53].appl 	"Avg GW Duration" 	0
scalar SERVitESScenario.node[53].appl 	"Avg Service Availability" 	226
scalar SERVitESScenario.node[53].appl 	reqNumber 	0
scalar SERVitESScenario.node[53].appl 	"response number" 	0
scalar SERVitESScenario.node[53].appl 	"use resource" 	0
scalar SERVitESScenario.node[53].appl 	requestHelp 	0
scalar SERVitESScenario.node[53].appl 	"Res Ready" 	0
scalar SERVitESScenario.node[53].appl 	"Service Searching TIME MIN " 	1
scalar SERVitESScenario.node[53].appl 	"Service Searching TIME MAX " 	0
scalar SERVitESScenario.node[53].appl 	"join cluster " 	0
scalar SERVitESScenario.node[53].appl 	overheadCluster 	1
scalar SERVitESScenario.node[53].appl 	overheadService 	0
scalar SERVitESScenario.node[53].appl 	overheadBeacon 	0
scalar SERVitESScenario.node[53].nic.phy80211p 	busyTime 	1.5896228054135e-005
scalar SERVitESScenario.node[53].nic.mac1609_4 	ReceivedUnicastPackets 	0
scalar SERVitESScenario.node[53].nic.mac1609_4 	ReceivedBroadcasts 	3
scalar SERVitESScenario.node[53].nic.mac1609_4 	SentPackets 	1
scalar SERVitESScenario.node[53].nic.mac1609_4 	SNIRLostPackets 	0
scalar SERVitESScenario.node[53].nic.mac1609_4 	RXTXLostPackets 	0
scalar SERVitESScenario.node[53].nic.mac1609_4 	TotalLostPackets 	0
scalar SERVitESScenario.node[53].nic.mac1609_4 	DroppedPacketsInMac 	0
scalar SERVitESScenario.node[53].nic.mac1609_4 	TooLittleTime 	0
scalar SERVitESScenario.node[53].nic.mac1609_4 	TimesIntoBackoff 	1
scalar SERVitESScenario.node[53].nic.mac1609_4 	SlotsBackoff 	1
scalar SERVitESScenario.node[53].nic.mac1609_4 	NumInternalContention 	0
scalar SERVitESScenario.node[53].nic.mac1609_4 	totalBusyTime 	0.000481
scalar SERVitESScenario.node[53].veinsmobility 	startTime 	36.1
scalar SERVitESScenario.node[53].veinsmobility 	totalTime 	22.6
scalar SERVitESScenario.node[53].veinsmobility 	stopTime 	58.746881937904
scalar SERVitESScenario.node[53].veinsmobility 	minSpeed 	0.25376555642718
scalar SERVitESScenario.node[53].veinsmobility 	maxSpeed 	10.079011098172
scalar SERVitESScenario.node[53].veinsmobility 	totalDistance 	202.40473151947
scalar SERVitESScenario.node[53].veinsmobility 	totalCO2Emission 	48.891353521485
scalar SERVitESScenario.node[55].appl 	"Avg CH Duration" 	0
scalar SERVitESScenario.node[55].appl 	"Avg MV Duration" 	0
scalar SERVitESScenario.node[55].appl 	"Avg GW Duration" 	0
scalar SERVitESScenario.node[55].appl 	"Avg Service Availability" 	216
scalar SERVitESScenario.node[55].appl 	reqNumber 	0
scalar SERVitESScenario.node[55].appl 	"response number" 	0
scalar SERVitESScenario.node[55].appl 	"use resource" 	0
scalar SERVitESScenario.node[55].appl 	requestHelp 	0
scalar SERVitESScenario.node[55].appl 	"Res Ready" 	0
scalar SERVitESScenario.node[55].appl 	"Service Searching TIME MIN " 	1
scalar SERVitESScenario.node[55].appl 	"Service Searching TIME MAX " 	0
scalar SERVitESScenario.node[55].appl 	"join cluster " 	0
scalar SERVitESScenario.node[55].appl 	overheadCluster 	1
scalar SERVitESScenario.node[55].appl 	overheadService 	0
scalar SERVitESScenario.node[55].appl 	overheadBeacon 	0
scalar SERVitESScenario.node[55].nic.phy80211p 	busyTime 	0.0010144648112829
scalar SERVitESScenario.node[55].nic.mac1609_4 	ReceivedUnicastPackets 	0
scalar SERVitESScenario.node[55].nic.mac1609_4 	ReceivedBroadcasts 	183
scalar SERVitESScenario.node[55].nic.mac1609_4 	SentPackets 	1
scalar SERVitESScenario.node[55].nic.mac1609_4 	SNIRLostPackets 	0
scalar SERVitESScenario.node[55].nic.mac1609_4 	RXTXLostPackets 	0
scalar SERVitESScenario.node[55].nic.mac1609_4 	TotalLostPackets 	0
scalar SERVitESScenario.node[55].nic.mac1609_4 	DroppedPacketsInMac 	0
scalar SERVitESScenario.node[55].nic.mac1609_4 	TooLittleTime 	0
scalar SERVitESScenario.node[55].nic.mac1609_4 	TimesIntoBackoff 	1
scalar SERVitESScenario.node[55].nic.mac1609_4 	SlotsBackoff 	4
scalar SERVitESScenario.node[55].nic.mac1609_4 	NumInternalContention 	0
scalar SERVitESScenario.node[55].nic.mac1609_4 	totalBusyTime 	0.022081
scalar SERVitESScenario.node[55].veinsmobility 	startTime 	37.1
scalar SERVitESScenario.node[55].veinsmobility 	totalTime 	21.6
scalar SERVitESScenario.node[55].veinsmobility 	stopTime 	58.746881937904
scalar SERVitESScenario.node[55].veinsmobility 	minSpeed 	0.24798144665011
scalar SERVitESScenario.node[55].veinsmobility 	maxSpeed 	10.037716905631
scalar SERVitESScenario.node[55].veinsmobility 	totalDistance 	176.40955343502
scalar SERVitESScenario.node[55].veinsmobility 	totalCO2Emission 	55.676097390257
scalar SERVitESScenario.node[56].appl 	"Avg CH Duration" 	0
scalar SERVitESScenario.node[56].appl 	"Avg MV Duration" 	155
scalar SERVitESScenario.node[56].appl 	"Avg GW Duration" 	0
scalar SERVitESScenario.node[56].appl 	"Avg Service Availability" 	195
scalar SERVitESScenario.node[56].appl 	reqNumber 	1
scalar SERVitESScenario.node[56].appl 	"response number" 	1
scalar SERVitESScenario.node[56].appl 	"use resource" 	1
scalar SERVitESScenario.node[56].appl 	requestHelp 	0
scalar SERVitESScenario.node[56].appl 	"Res Ready" 	2
scalar SERVitESScenario.node[56].appl 	"Service Searching TIME MIN " 	0.002898567391
scalar SERVitESScenario.node[56].appl 	"Service Searching TIME MAX " 	51.032402830939
scalar SERVitESScenario.node[56].appl 	"join cluster " 	1
scalar SERVitESScenario.node[56].appl 	overheadCluster 	1
scalar SERVitESScenario.node[56].appl 	overheadService 	4
scalar SERVitESScenario.node[56].appl 	overheadBeacon 	32
scalar SERVitESScenario.node[56].nic.phy80211p 	busyTime 	0.0007671860597469
scalar SERVitESScenario.node[56].nic.mac1609_4 	ReceivedUnicastPackets 	0
scalar SERVitESScenario.node[56].nic.mac1609_4 	ReceivedBroadcasts 	132
scalar SERVitESScenario.node[56].nic.mac1609_4 	SentPackets 	37
scalar SERVitESScenario.node[56].nic.mac1609_4 	SNIRLostPackets 	0
scalar SERVitESScenario.node[56].nic.mac1609_4 	RXTXLostPackets 	0
scalar SERVitESScenario.node[56].nic.mac1609_4 	TotalLostPackets 	0
scalar SERVitESScenario.node[56].nic.mac1609_4 	DroppedPacketsInMac 	0
scalar SERVitESScenario.node[56].nic.mac1609_4 	TooLittleTime 	0
scalar SERVitESScenario.node[56].nic.mac1609_4 	TimesIntoBackoff 	37
scalar SERVitESScenario.node[56].nic.mac1609_4 	SlotsBackoff 	128
scalar SERVitESScenario.node[56].nic.mac1609_4 	NumInternalContention 	0
scalar SERVitESScenario.node[56].nic.mac1609_4 	totalBusyTime 	0.020317
scalar SERVitESScenario.node[56].veinsmobility 	startTime 	38.1
scalar SERVitESScenario.node[56].veinsmobility 	totalTime 	20.6
scalar SERVitESScenario.node[56].veinsmobility 	stopTime 	58.746881937904
scalar SERVitESScenario.node[56].veinsmobility 	minSpeed 	0.2494820734954
scalar SERVitESScenario.node[56].veinsmobility 	maxSpeed 	10.026052524048
scalar SERVitESScenario.node[56].veinsmobility 	totalDistance 	167.20465124031
scalar SERVitESScenario.node[56].veinsmobility 	totalCO2Emission 	53.949510935242
scalar SERVitESScenario.node[5].appl 	"Avg CH Duration" 	145
scalar SERVitESScenario.node[5].appl 	"Avg MV Duration" 	0
scalar SERVitESScenario.node[5].appl 	"Avg GW Duration" 	0
scalar SERVitESScenario.node[5].appl 	"Avg Service Availability" 	546
scalar SERVitESScenario.node[5].appl 	reqNumber 	0
scalar SERVitESScenario.node[5].appl 	"response number" 	0
scalar SERVitESScenario.node[5].appl 	"use resource" 	0
scalar SERVitESScenario.node[5].appl 	requestHelp 	0
scalar SERVitESScenario.node[5].appl 	"Res Ready" 	0
scalar SERVitESScenario.node[5].appl 	"Service Searching TIME MIN " 	1
scalar SERVitESScenario.node[5].appl 	"Service Searching TIME MAX " 	0
scalar SERVitESScenario.node[5].appl 	"join cluster " 	1
scalar SERVitESScenario.node[5].appl 	overheadCluster 	2
scalar SERVitESScenario.node[5].appl 	overheadService 	0
scalar SERVitESScenario.node[5].appl 	overheadBeacon 	0
scalar SERVitESScenario.node[5].nic.phy80211p 	busyTime 	0
scalar SERVitESScenario.node[5].nic.mac1609_4 	ReceivedUnicastPackets 	0
scalar SERVitESScenario.node[5].nic.mac1609_4 	ReceivedBroadcasts 	0
scalar SERVitESScenario.node[5].nic.mac1609_4 	SentPackets 	2
scalar SERVitESScenario.node[5].nic.mac1609_4 	SNIRLostPackets 	0
scalar SERVitESScenario.node[5].nic.mac1609_4 	RXTXLostPackets 	0
scalar SERVitESScenario.node[5].nic.mac1609_4 	TotalLostPackets 	0
scalar SERVitESScenario.node[5].nic.mac1609_4 	DroppedPacketsInMac 	0
scalar SERVitESScenario.node[5].nic.mac1609_4 	TooLittleTime 	0
scalar SERVitESScenario.node[5].nic.mac1609_4 	TimesIntoBackoff 	2
scalar SERVitESScenario.node[5].nic.mac1609_4 	SlotsBackoff 	5
scalar SERVitESScenario.node[5].nic.mac1609_4 	NumInternalContention 	0
scalar SERVitESScenario.node[5].nic.mac1609_4 	totalBusyTime 	0.000242
scalar SERVitESScenario.node[5].veinsmobility 	startTime 	4.1
scalar SERVitESScenario.node[5].veinsmobility 	totalTime 	54.6
scalar SERVitESScenario.node[5].veinsmobility 	stopTime 	58.746881937904
scalar SERVitESScenario.node[5].veinsmobility 	minSpeed 	0.2473924821082
scalar SERVitESScenario.node[5].veinsmobility 	maxSpeed 	10.225060483385
scalar SERVitESScenario.node[5].veinsmobility 	totalDistance 	522.4031551754
scalar SERVitESScenario.node[5].veinsmobility 	totalCO2Emission 	103.17430486429
scalar SERVitESScenario.node[59].appl 	"Avg CH Duration" 	0
scalar SERVitESScenario.node[59].appl 	"Avg MV Duration" 	155
scalar SERVitESScenario.node[59].appl 	"Avg GW Duration" 	0
scalar SERVitESScenario.node[59].appl 	"Avg Service Availability" 	170
scalar SERVitESScenario.node[59].appl 	reqNumber 	1
scalar SERVitESScenario.node[59].appl 	"response number" 	2
scalar SERVitESScenario.node[59].appl 	"use resource" 	2
scalar SERVitESScenario.node[59].appl 	requestHelp 	0
scalar SERVitESScenario.node[59].appl 	"Res Ready" 	1
scalar SERVitESScenario.node[59].appl 	"Service Searching TIME MIN " 	0.002125356792
scalar SERVitESScenario.node[59].appl 	"Service Searching TIME MAX " 	0.002125356792
scalar SERVitESScenario.node[59].appl 	"join cluster " 	1
scalar SERVitESScenario.node[59].appl 	overheadCluster 	1
scalar SERVitESScenario.node[59].appl 	overheadService 	4
scalar SERVitESScenario.node[59].appl 	overheadBeacon 	32
scalar SERVitESScenario.node[59].nic.phy80211p 	busyTime 	0.0023617889653969
scalar SERVitESScenario.node[59].nic.mac1609_4 	ReceivedUnicastPackets 	0
scalar SERVitESScenario.node[59].nic.mac1609_4 	ReceivedBroadcasts 	361
scalar SERVitESScenario.node[59].nic.mac1609_4 	SentPackets 	37
scalar SERVitESScenario.node[59].nic.mac1609_4 	SNIRLostPackets 	6
scalar SERVitESScenario.node[59].nic.mac1609_4 	RXTXLostPackets 	0
scalar SERVitESScenario.node[59].nic.mac1609_4 	TotalLostPackets 	6
scalar SERVitESScenario.node[59].nic.mac1609_4 	DroppedPacketsInMac 	0
scalar SERVitESScenario.node[59].nic.mac1609_4 	TooLittleTime 	0
scalar SERVitESScenario.node[59].nic.mac1609_4 	TimesIntoBackoff 	37
scalar SERVitESScenario.node[59].nic.mac1609_4 	SlotsBackoff 	112
scalar SERVitESScenario.node[59].nic.mac1609_4 	NumInternalContention 	0
scalar SERVitESScenario.node[59].nic.mac1609_4 	totalBusyTime 	0.048157
scalar SERVitESScenario.node[59].veinsmobility 	startTime 	40.1
scalar SERVitESScenario.node[59].veinsmobility 	totalTime 	18.6
scalar SERVitESScenario.node[59].veinsmobility 	stopTime 	58.746881937904
scalar SERVitESScenario.node[59].veinsmobility 	minSpeed 	0.25880583713413
scalar SERVitESScenario.node[59].veinsmobility 	maxSpeed 	10.013625938105
scalar SERVitESScenario.node[59].veinsmobility 	totalDistance 	130.52103485844
scalar SERVitESScenario.node[59].veinsmobility 	totalCO2Emission 	54.794604853051
scalar SERVitESScenario.node[60].appl 	"Avg CH Duration" 	0
scalar SERVitESScenario.node[60].appl 	"Avg MV Duration" 	65
scalar SERVitESScenario.node[60].appl 	"Avg GW Duration" 	0
scalar SERVitESScenario.node[60].appl 	"Avg Service Availability" 	175
scalar SERVitESScenario.node[60].appl 	reqNumber 	0
scalar SERVitESScenario.node[60].appl 	"response number" 	1
scalar SERVitESScenario.node[60].appl 	"use resource" 	0
scalar SERVitESScenario.node[60].appl 	requestHelp 	0
scalar SERVitESScenario.node[60].appl 	"Res Ready" 	0
scalar SERVitESScenario.node[60].appl 	"Service Searching TIME MIN " 	1
scalar SERVitESScenario.node[60].appl 	"Service Searching TIME MAX " 	0
scalar SERVitESScenario.node[60].appl 	"join cluster " 	0
scalar SERVitESScenario.node[60].appl 	overheadCluster 	1
scalar SERVitESScenario.node[60].appl 	overheadService 	1
scalar SERVitESScenario.node[60].appl 	overheadBeacon 	0
scalar SERVitESScenario.node[60].nic.phy80211p 	busyTime 	0.0015164151998162
scalar SERVitESScenario.node[60].nic.mac1609_4 	ReceivedUnicastPackets 	0
scalar SERVitESScenario.node[60].nic.mac1609_4 	ReceivedBroadcasts 	223
scalar SERVitESScenario.node[60].nic.mac1609_4 	SentPackets 	2
scalar SERVitESScenario.node[60].nic.mac1609_4 	SNIRLostPackets 	0
scalar SERVitESScenario.node[60].nic.mac1609_4 	RXTXLostPackets 	0
scalar SERVitESScenario.node[60].nic.mac1609_4 	TotalLostPackets 	0
scalar SERVitESScenario.node[60].nic.mac1609_4 	DroppedPacketsInMac 	0
scalar SERVitESScenario.node[60].nic.mac1609_4 	TooLittleTime 	0
scalar SERVitESScenario.node[60].nic.mac1609_4 	TimesIntoBackoff 	4
scalar SERVitESScenario.node[60].nic.mac1609_4 	SlotsBackoff 	14
scalar SERVitESScenario.node[60].nic.mac1609_4 	NumInternalContention 	0
scalar SERVitESScenario.node[60].nic.mac1609_4 	totalBusyTime 	0.027002
scalar SERVitESScenario.node[60].veinsmobility 	startTime 	41.1
scalar SERVitESScenario.node[60].veinsmobility 	totalTime 	17.6
scalar SERVitESScenario.node[60].veinsmobility 	stopTime 	58.746881937904
scalar SERVitESScenario.node[60].veinsmobility 	minSpeed 	0.25717012386303
scalar SERVitESScenario.node[60].veinsmobility 	maxSpeed 	10.05840223666
scalar SERVitESScenario.node[60].veinsmobility 	totalDistance 	152.38154838606
scalar SERVitESScenario.node[60].veinsmobility 	totalCO2Emission 	40.421764732952
scalar SERVitESScenario.node[62].appl 	"Avg CH Duration" 	0
scalar SERVitESScenario.node[62].appl 	"Avg MV Duration" 	155
scalar SERVitESScenario.node[62].appl 	"Avg GW Duration" 	0
scalar SERVitESScenario.node[62].appl 	"Avg Service Availability" 	160
scalar SERVitESScenario.node[62].appl 	reqNumber 	1
scalar SERVitESScenario.node[62].appl 	"response number" 	1
scalar SERVitESScenario.node[62].appl 	"use resource" 	0
scalar SERVitESScenario.node[62].appl 	requestHelp 	0
scalar SERVitESScenario.node[62].appl 	"Res Ready" 	1
scalar SERVitESScenario.node[62].appl 	"Service Searching TIME MIN " 	0.006157712149
scalar SERVitESScenario.node[62].appl 	"Service Searching TIME MAX " 	0.006157712149
scalar SERVitESScenario.node[62].appl 	"join cluster " 	1
scalar SERVitESScenario.node[62].appl 	overheadCluster 	2
scalar SERVitESScenario.node[62].appl 	overheadService 	3
scalar SERVitESScenario.node[62].appl 	overheadBeacon 	32
scalar SERVitESScenario.node[62].nic.phy80211p 	busyTime 	0.00068481293028473
scalar SERVitESScenario.node[62].nic.mac1609_4 	ReceivedUnicastPackets 	0
scalar SERVitESScenario.node[62].nic.mac1609_4 	ReceivedBroadcasts 	95
scalar SERVitESScenario.node[62].nic.mac1609_4 	SentPackets 	37
scalar SERVitESScenario.node[62].nic.mac1609_4 	SNIRLostPackets 	0
scalar SERVitESScenario.node[62].nic.mac1609_4 	RXTXLostPackets 	0
scalar SERVitESScenario.node[62].nic.mac1609_4 	TotalLostPackets 	0
scalar SERVitESScenario.node[62].nic.mac1609_4 	DroppedPacketsInMac 	0
scalar SERVitESScenario.node[62].nic.mac1609_4 	TooLittleTime 	0
scalar SERVitESScenario.node[62].nic.mac1609_4 	TimesIntoBackoff 	38
scalar SERVitESScenario.node[62].nic.mac1609_4 	SlotsBackoff 	128
scalar SERVitESScenario.node[62].nic.mac1609_4 	NumInternalContention 	0
scalar SERVitESScenario.node[62].nic.mac1609_4 	totalBusyTime 	0.015877
scalar SERVitESScenario.node[62].veinsmobility 	startTime 	42.1
scalar SERVitESScenario.node[62].veinsmobility 	totalTime 	16.6
scalar SERVitESScenario.node[62].veinsmobility 	stopTime 	58.746881937904
scalar SERVitESScenario.node[62].veinsmobility 	minSpeed 	0.25572835037578
scalar SERVitESScenario.node[62].veinsmobility 	maxSpeed 	10.224213892084
scalar SERVitESScenario.node[62].veinsmobility 	totalDistance 	126.78201745541
scalar SERVitESScenario.node[62].veinsmobility 	totalCO2Emission 	47.744746213332
scalar SERVitESScenario.node[65].appl 	"Avg CH Duration" 	0
scalar SERVitESScenario.node[65].appl 	"Avg MV Duration" 	0
scalar SERVitESScenario.node[65].appl 	"Avg GW Duration" 	0
scalar SERVitESScenario.node[65].appl 	"Avg Service Availability" 	146
scalar SERVitESScenario.node[65].appl 	reqNumber 	0
scalar SERVitESScenario.node[65].appl 	"response number" 	0
scalar SERVitESScenario.node[65].appl 	"use resource" 	0
scalar SERVitESScenario.node[65].appl 	requestHelp 	0
scalar SERVitESScenario.node[65].appl 	"Res Ready" 	0
scalar SERVitESScenario.node[65].appl 	"Service Searching TIME MIN " 	1
scalar SERVitESScenario.node[65].appl 	"Service Searching TIME MAX " 	0
scalar SERVitESScenario.node[65].appl 	"join cluster " 	0
scalar SERVitESScenario.node[65].appl 	overheadCluster 	0
scalar SERVitESScenario.node[65].appl 	overheadService 	0
scalar SERVitESScenario.node[65].appl 	overheadBeacon 	0
scalar SERVitESScenario.node[65].nic.phy80211p 	busyTime 	0.0020318317663902
scalar SERVitESScenario.node[65].nic.mac1609_4 	ReceivedUnicastPackets 	0
scalar SERVitESScenario.node[65].nic.mac1609_4 	ReceivedBroadcasts 	248
scalar SERVitESScenario.node[65].nic.mac1609_4 	SentPackets 	0
scalar SERVitESScenario.node[65].nic.mac1609_4 	SNIRLostPackets 	0
scalar SERVitESScenario.node[65].nic.mac1609_4 	RXTXLostPackets 	0
scalar SERVitESScenario.node[65].nic.mac1609_4 	TotalLostPackets 	0
scalar SERVitESScenario.node[65].nic.mac1609_4 	DroppedPacketsInMac 	0
scalar SERVitESScenario.node[65].nic.mac1609_4 	TooLittleTime 	0
scalar SERVitESScenario.node[65].nic.mac1609_4 	TimesIntoBackoff 	0
scalar SERVitESScenario.node[65].nic.mac1609_4 	SlotsBackoff 	0
scalar SERVitESScenario.node[65].nic.mac1609_4 	NumInternalContention 	0
scalar SERVitESScenario.node[65].nic.mac1609_4 	totalBusyTime 	0.02976
scalar SERVitESScenario.node[65].veinsmobility 	startTime 	44.1
scalar SERVitESScenario.node[65].veinsmobility 	totalTime 	14.6
scalar SERVitESScenario.node[65].veinsmobility 	stopTime 	58.746881937904
scalar SERVitESScenario.node[65].veinsmobility 	minSpeed 	0.12440889868576
scalar SERVitESScenario.node[65].veinsmobility 	maxSpeed 	10.039051109286
scalar SERVitESScenario.node[65].veinsmobility 	totalDistance 	84.036484106703
scalar SERVitESScenario.node[65].veinsmobility 	totalCO2Emission 	30.94925451005
scalar SERVitESScenario.node[67].appl 	"Avg CH Duration" 	0
scalar SERVitESScenario.node[67].appl 	"Avg MV Duration" 	0
scalar SERVitESScenario.node[67].appl 	"Avg GW Duration" 	0
scalar SERVitESScenario.node[67].appl 	"Avg Service Availability" 	126
scalar SERVitESScenario.node[67].appl 	reqNumber 	0
scalar SERVitESScenario.node[67].appl 	"response number" 	0
scalar SERVitESScenario.node[67].appl 	"use resource" 	0
scalar SERVitESScenario.node[67].appl 	requestHelp 	0
scalar SERVitESScenario.node[67].appl 	"Res Ready" 	0
scalar SERVitESScenario.node[67].appl 	"Service Searching TIME MIN " 	1
scalar SERVitESScenario.node[67].appl 	"Service Searching TIME MAX " 	0
scalar SERVitESScenario.node[67].appl 	"join cluster " 	0
scalar SERVitESScenario.node[67].appl 	overheadCluster 	0
scalar SERVitESScenario.node[67].appl 	overheadService 	0
scalar SERVitESScenario.node[67].appl 	overheadBeacon 	0
scalar SERVitESScenario.node[67].nic.phy80211p 	busyTime 	0.00058828729773317
scalar SERVitESScenario.node[67].nic.mac1609_4 	ReceivedUnicastPackets 	0
scalar SERVitESScenario.node[67].nic.mac1609_4 	ReceivedBroadcasts 	62
scalar SERVitESScenario.node[67].nic.mac1609_4 	SentPackets 	0
scalar SERVitESScenario.node[67].nic.mac1609_4 	SNIRLostPackets 	0
scalar SERVitESScenario.node[67].nic.mac1609_4 	RXTXLostPackets 	0
scalar SERVitESScenario.node[67].nic.mac1609_4 	TotalLostPackets 	0
scalar SERVitESScenario.node[67].nic.mac1609_4 	DroppedPacketsInMac 	0
scalar SERVitESScenario.node[67].nic.mac1609_4 	TooLittleTime 	0
scalar SERVitESScenario.node[67].nic.mac1609_4 	TimesIntoBackoff 	0
scalar SERVitESScenario.node[67].nic.mac1609_4 	SlotsBackoff 	0
scalar SERVitESScenario.node[67].nic.mac1609_4 	NumInternalContention 	0
scalar SERVitESScenario.node[67].nic.mac1609_4 	totalBusyTime 	0.00744
scalar SERVitESScenario.node[67].veinsmobility 	startTime 	46.1
scalar SERVitESScenario.node[67].veinsmobility 	totalTime 	12.6
scalar SERVitESScenario.node[67].veinsmobility 	stopTime 	58.746881937904
scalar SERVitESScenario.node[67].veinsmobility 	minSpeed 	0.25878608188103
scalar SERVitESScenario.node[67].veinsmobility 	maxSpeed 	10.009921235204
scalar SERVitESScenario.node[67].veinsmobility 	totalDistance 	103.62991979281
scalar SERVitESScenario.node[67].veinsmobility 	totalCO2Emission 	32.012161539807
scalar SERVitESScenario.node[69].appl 	"Avg CH Duration" 	0
scalar SERVitESScenario.node[69].appl 	"Avg MV Duration" 	65
scalar SERVitESScenario.node[69].appl 	"Avg GW Duration" 	0
scalar SERVitESScenario.node[69].appl 	"Avg Service Availability" 	114
scalar SERVitESScenario.node[69].appl 	reqNumber 	0
scalar SERVitESScenario.node[69].appl 	"response number" 	2
scalar SERVitESScenario.node[69].appl 	"use resource" 	0
scalar SERVitESScenario.node[69].appl 	requestHelp 	0
scalar SERVitESScenario.node[69].appl 	"Res Ready" 	0
scalar SERVitESScenario.node[69].appl 	"Service Searching TIME MIN " 	1
scalar SERVitESScenario.node[69].appl 	"Service Searching TIME MAX " 	0
scalar SERVitESScenario.node[69].appl 	"join cluster " 	1
scalar SERVitESScenario.node[69].appl 	overheadCluster 	1
scalar SERVitESScenario.node[69].appl 	overheadService 	2
scalar SERVitESScenario.node[69].appl 	overheadBeacon 	14
scalar SERVitESScenario.node[69].nic.phy80211p 	busyTime 	0.0012775951606047
scalar SERVitESScenario.node[69].nic.mac1609_4 	ReceivedUnicastPackets 	0
scalar SERVitESScenario.node[69].nic.mac1609_4 	ReceivedBroadcasts 	124
scalar SERVitESScenario.node[69].nic.mac1609_4 	SentPackets 	17
scalar SERVitESScenario.node[69].nic.mac1609_4 	SNIRLostPackets 	0
scalar SERVitESScenario.node[69].nic.mac1609_4 	RXTXLostPackets 	0
scalar SERVitESScenario.node[69].nic.mac1609_4 	TotalLostPackets 	0
scalar SERVitESScenario.node[69].nic.mac1609_4 	DroppedPacketsInMac 	0
scalar SERVitESScenario.node[69].nic.mac1609_4 	TooLittleTime 	0
scalar SERVitESScenario.node[69].nic.mac1609_4 	TimesIntoBackoff 	17
scalar SERVitESScenario.node[69].nic.mac1609_4 	SlotsBackoff 	69
scalar SERVitESScenario.node[69].nic.mac1609_4 	NumInternalContention 	0
scalar SERVitESScenario.node[69].nic.mac1609_4 	totalBusyTime 	0.016937
scalar SERVitESScenario.node[69].veinsmobility 	startTime 	47.1
scalar SERVitESScenario.node[69].veinsmobility 	totalTime 	11.6
scalar SERVitESScenario.node[69].veinsmobility 	stopTime 	58.746881937904
scalar SERVitESScenario.node[69].veinsmobility 	minSpeed 	0.25259635784058
scalar SERVitESScenario.node[69].veinsmobility 	maxSpeed 	10.248721717305
scalar SERVitESScenario.node[69].veinsmobility 	totalDistance 	82.960117273389
scalar SERVitESScenario.node[69].veinsmobility 	totalCO2Emission 	28.965103266789
scalar SERVitESScenario.node[70].appl 	"Avg CH Duration" 	0
scalar SERVitESScenario.node[70].appl 	"Avg MV Duration" 	65
scalar SERVitESScenario.node[70].appl 	"Avg GW Duration" 	0
scalar SERVitESScenario.node[70].appl 	"Avg Service Availability" 	104
scalar SERVitESScenario.node[70].appl 	reqNumber 	0
scalar SERVitESScenario.node[70].appl 	"response number" 	1
scalar SERVitESScenario.node[70].appl 	"use resource" 	1
scalar SERVitESScenario.node[70].appl 	requestHelp 	0
scalar SERVitESScenario.node[70].appl 	"Res Ready" 	0
scalar SERVitESScenario.node[70].appl 	"Service Searching TIME MIN " 	1
scalar SERVitESScenario.node[70].appl 	"Service Searching TIME MAX " 	0
scalar SERVitESScenario.node[70].appl 	"join cluster " 	0
scalar SERVitESScenario.node[70].appl 	overheadCluster 	1
scalar SERVitESScenario.node[70].appl 	overheadService 	1
scalar SERVitESScenario.node[70].appl 	overheadBeacon 	0
scalar SERVitESScenario.node[70].nic.phy80211p 	busyTime 	0.0012285286975367
scalar SERVitESScenario.node[70].nic.mac1609_4 	ReceivedUnicastPackets 	0
scalar SERVitESScenario.node[70].nic.mac1609_4 	ReceivedBroadcasts 	107
scalar SERVitESScenario.node[70].nic.mac1609_4 	SentPackets 	2
scalar SERVitESScenario.node[70].nic.mac1609_4 	SNIRLostPackets 	2
scalar SERVitESScenario.node[70].nic.mac1609_4 	RXTXLostPackets 	0
scalar SERVitESScenario.node[70].nic.mac1609_4 	TotalLostPackets 	2
scalar SERVitESScenario.node[70].nic.mac1609_4 	DroppedPacketsInMac 	0
scalar SERVitESScenario.node[70].nic.mac1609_4 	TooLittleTime 	0
scalar SERVitESScenario.node[70].nic.mac1609_4 	TimesIntoBackoff 	4
scalar SERVitESScenario.node[70].nic.mac1609_4 	SlotsBackoff 	16
scalar SERVitESScenario.node[70].nic.mac1609_4 	NumInternalContention 	0
scalar SERVitESScenario.node[70].nic.mac1609_4 	totalBusyTime 	0.013202
scalar SERVitESScenario.node[70].veinsmobility 	startTime 	48.1
scalar SERVitESScenario.node[70].veinsmobility 	totalTime 	10.6
scalar SERVitESScenario.node[70].veinsmobility 	stopTime 	58.746881937904
scalar SERVitESScenario.node[70].veinsmobility 	minSpeed 	0.25279264940741
scalar SERVitESScenario.node[70].veinsmobility 	maxSpeed 	10.157040729045
scalar SERVitESScenario.node[70].veinsmobility 	totalDistance 	83.286420342196
scalar SERVitESScenario.node[70].veinsmobility 	totalCO2Emission 	28.848264172627
scalar SERVitESScenario.node[72].appl 	"Avg CH Duration" 	0
scalar SERVitESScenario.node[72].appl 	"Avg MV Duration" 	0
scalar SERVitESScenario.node[72].appl 	"Avg GW Duration" 	0
scalar SERVitESScenario.node[72].appl 	"Avg Service Availability" 	96
scalar SERVitESScenario.node[72].appl 	reqNumber 	0
scalar SERVitESScenario.node[72].appl 	"response number" 	0
scalar SERVitESScenario.node[72].appl 	"use resource" 	0
scalar SERVitESScenario.node[72].appl 	requestHelp 	0
scalar SERVitESScenario.node[72].appl 	"Res Ready" 	0
scalar SERVitESScenario.node[72].appl 	"Service Searching TIME MIN " 	1
scalar SERVitESScenario.node[72].appl 	"Service Searching TIME MAX " 	0
scalar SERVitESScenario.node[72].appl 	"join cluster " 	0
scalar SERVitESScenario.node[72].appl 	overheadCluster 	0
scalar SERVitESScenario.node[72].appl 	overheadService 	0
scalar SERVitESScenario.node[72].appl 	overheadBeacon 	0
scalar SERVitESScenario.node[72].nic.phy80211p 	busyTime 	0.00083342991567148
scalar SERVitESScenario.node[72].nic.mac1609_4 	ReceivedUnicastPackets 	0
scalar SERVitESScenario.node[72].nic.mac1609_4 	ReceivedBroadcasts 	67
scalar SERVitESScenario.node[72].nic.mac1609_4 	SentPackets 	0
scalar SERVitESScenario.node[72].nic.mac1609_4 	SNIRLostPackets 	0
scalar SERVitESScenario.node[72].nic.mac1609_4 	RXTXLostPackets 	0
scalar SERVitESScenario.node[72].nic.mac1609_4 	TotalLostPackets 	0
scalar SERVitESScenario.node[72].nic.mac1609_4 	DroppedPacketsInMac 	0
scalar SERVitESScenario.node[72].nic.mac1609_4 	TooLittleTime 	0
scalar SERVitESScenario.node[72].nic.mac1609_4 	TimesIntoBackoff 	0
scalar SERVitESScenario.node[72].nic.mac1609_4 	SlotsBackoff 	0
scalar SERVitESScenario.node[72].nic.mac1609_4 	NumInternalContention 	0
scalar SERVitESScenario.node[72].nic.mac1609_4 	totalBusyTime 	0.00804
[...]
scalar SERVitESScenario.node[77].nic.mac1609_4 	RXTXLostPackets 	0
scalar SERVitESScenario.node[77].nic.mac1609_4 	TotalLostPackets 	33
scalar SERVitESScenario.node[77].nic.mac1609_4 	DroppedPacketsInMac 	0
scalar SERVitESScenario.node[77].nic.mac1609_4 	TooLittleTime 	0
scalar SERVitESScenario.node[77].nic.mac1609_4 	TimesIntoBackoff 	0
scalar SERVitESScenario.node[77].nic.mac1609_4 	SlotsBackoff 	0
scalar SERVitESScenario.node[77].nic.mac1609_4 	NumInternalContention 	0
scalar SERVitESScenario.node[77].nic.mac1609_4 	totalBusyTime 	0.03216
scalar SERVitESScenario.node[77].veinsmobility 	startTime 	53.6
scalar SERVitESScenario.node[77].veinsmobility 	totalTime 	5.1
scalar SERVitESScenario.node[77].veinsmobility 	stopTime 	58.746881937904
scalar SERVitESScenario.node[77].veinsmobility 	minSpeed 	0.088346757299268
scalar SERVitESScenario.node[77].veinsmobility 	maxSpeed 	1.0960010394125
scalar SERVitESScenario.node[77].veinsmobility 	totalDistance 	3.8000398686317
scalar SERVitESScenario.node[77].veinsmobility 	totalCO2Emission 	5.8459404743848
scalar SERVitESScenario.node[79].appl 	"Avg CH Duration" 	0
scalar SERVitESScenario.node[79].appl 	"Avg MV Duration" 	0
scalar SERVitESScenario.node[79].appl 	"Avg GW Duration" 	0
scalar SERVitESScenario.node[79].appl 	"Avg Service Availability" 	37
scalar SERVitESScenario.node[79].appl 	reqNumber 	0
scalar SERVitESScenario.node[79].appl 	"response number" 	0
scalar SERVitESScenario.node[79].appl 	"use resource" 	0
scalar SERVitESScenario.node[79].appl 	requestHelp 	0
scalar SERVitESScenario.node[79].appl 	"Res Ready" 	0
scalar SERVitESScenario.node[79].appl 	"Service Searching TIME MIN " 	1
scalar SERVitESScenario.node[79].appl 	"Service Searching TIME MAX " 	0
scalar SERVitESScenario.node[79].appl 	"join cluster " 	0
scalar SERVitESScenario.node[79].appl 	overheadCluster 	0
scalar SERVitESScenario.node[79].appl 	overheadService 	0
scalar SERVitESScenario.node[79].appl 	overheadBeacon 	0
scalar SERVitESScenario.node[79].nic.phy80211p 	busyTime 	0.0066295123282949
scalar SERVitESScenario.node[79].nic.mac1609_4 	ReceivedUnicastPackets 	0
scalar SERVitESScenario.node[79].nic.mac1609_4 	ReceivedBroadcasts 	180
scalar SERVitESScenario.node[79].nic.mac1609_4 	SentPackets 	0
scalar SERVitESScenario.node[79].nic.mac1609_4 	SNIRLostPackets 	27
scalar SERVitESScenario.node[79].nic.mac1609_4 	RXTXLostPackets 	0
scalar SERVitESScenario.node[79].nic.mac1609_4 	TotalLostPackets 	27
scalar SERVitESScenario.node[79].nic.mac1609_4 	DroppedPacketsInMac 	0
scalar SERVitESScenario.node[79].nic.mac1609_4 	TooLittleTime 	0
scalar SERVitESScenario.node[79].nic.mac1609_4 	TimesIntoBackoff 	0
scalar SERVitESScenario.node[79].nic.mac1609_4 	SlotsBackoff 	0
scalar SERVitESScenario.node[79].nic.mac1609_4 	NumInternalContention 	0
scalar SERVitESScenario.node[79].nic.mac1609_4 	totalBusyTime 	0.02316
scalar SERVitESScenario.node[79].veinsmobility 	startTime 	55
scalar SERVitESScenario.node[79].veinsmobility 	totalTime 	3.7
scalar SERVitESScenario.node[79].veinsmobility 	stopTime 	58.746881937904
scalar SERVitESScenario.node[79].veinsmobility 	minSpeed 	0.11400095591225
scalar SERVitESScenario.node[79].veinsmobility 	maxSpeed 	0.97045360954086
scalar SERVitESScenario.node[79].veinsmobility 	totalDistance 	2.3813515731292
scalar SERVitESScenario.node[79].veinsmobility 	totalCO2Emission 	4.1692078670796
scalar SERVitESScenario.node[82].appl 	"Avg CH Duration" 	0
scalar SERVitESScenario.node[82].appl 	"Avg MV Duration" 	0
scalar SERVitESScenario.node[82].appl 	"Avg GW Duration" 	0
scalar SERVitESScenario.node[82].appl 	"Avg Service Availability" 	24
scalar SERVitESScenario.node[82].appl 	reqNumber 	0
scalar SERVitESScenario.node[82].appl 	"response number" 	0
scalar SERVitESScenario.node[82].appl 	"use resource" 	0
scalar SERVitESScenario.node[82].appl 	requestHelp 	0
scalar SERVitESScenario.node[82].appl 	"Res Ready" 	0
scalar SERVitESScenario.node[82].appl 	"Service Searching TIME MIN " 	1
scalar SERVitESScenario.node[82].appl 	"Service Searching TIME MAX " 	0
scalar SERVitESScenario.node[82].appl 	"join cluster " 	0
scalar SERVitESScenario.node[82].appl 	overheadCluster 	0
scalar SERVitESScenario.node[82].appl 	overheadService 	0
scalar SERVitESScenario.node[82].appl 	overheadBeacon 	0
scalar SERVitESScenario.node[82].nic.phy80211p 	busyTime 	0.0063264188435917
scalar SERVitESScenario.node[82].nic.mac1609_4 	ReceivedUnicastPackets 	0
scalar SERVitESScenario.node[82].nic.mac1609_4 	ReceivedBroadcasts 	109
scalar SERVitESScenario.node[82].nic.mac1609_4 	SentPackets 	0
scalar SERVitESScenario.node[82].nic.mac1609_4 	SNIRLostPackets 	19
scalar SERVitESScenario.node[82].nic.mac1609_4 	RXTXLostPackets 	0
scalar SERVitESScenario.node[82].nic.mac1609_4 	TotalLostPackets 	19
scalar SERVitESScenario.node[82].nic.mac1609_4 	DroppedPacketsInMac 	0
scalar SERVitESScenario.node[82].nic.mac1609_4 	TooLittleTime 	0
scalar SERVitESScenario.node[82].nic.mac1609_4 	TimesIntoBackoff 	0
scalar SERVitESScenario.node[82].nic.mac1609_4 	SlotsBackoff 	0
scalar SERVitESScenario.node[82].nic.mac1609_4 	NumInternalContention 	0
scalar SERVitESScenario.node[82].nic.mac1609_4 	totalBusyTime 	0.01416
scalar SERVitESScenario.node[82].veinsmobility 	startTime 	56.3
scalar SERVitESScenario.node[82].veinsmobility 	totalTime 	2.4
scalar SERVitESScenario.node[82].veinsmobility 	stopTime 	58.746881937904
scalar SERVitESScenario.node[82].veinsmobility 	minSpeed 	0.063322202902584
scalar SERVitESScenario.node[82].veinsmobility 	maxSpeed 	0.74571774864351
scalar SERVitESScenario.node[82].veinsmobility 	totalDistance 	1.1647240177417
scalar SERVitESScenario.node[82].veinsmobility 	totalCO2Emission 	2.6786648904986
scalar SERVitESScenario.node[83].appl 	"Avg CH Duration" 	0
scalar SERVitESScenario.node[83].appl 	"Avg MV Duration" 	0
scalar SERVitESScenario.node[83].appl 	"Avg GW Duration" 	0
scalar SERVitESScenario.node[83].appl 	"Avg Service Availability" 	10
scalar SERVitESScenario.node[83].appl 	reqNumber 	0
scalar SERVitESScenario.node[83].appl 	"response number" 	0
scalar SERVitESScenario.node[83].appl 	"use resource" 	0
scalar SERVitESScenario.node[83].appl 	requestHelp 	0
scalar SERVitESScenario.node[83].appl 	"Res Ready" 	0
scalar SERVitESScenario.node[83].appl 	"Service Searching TIME MIN " 	1
scalar SERVitESScenario.node[83].appl 	"Service Searching TIME MAX " 	0
scalar SERVitESScenario.node[83].appl 	"join cluster " 	0
scalar SERVitESScenario.node[83].appl 	overheadCluster 	0
scalar SERVitESScenario.node[83].appl 	overheadService 	0
scalar SERVitESScenario.node[83].appl 	overheadBeacon 	0
scalar SERVitESScenario.node[83].nic.phy80211p 	busyTime 	0.0088262101632012
scalar SERVitESScenario.node[83].nic.mac1609_4 	ReceivedUnicastPackets 	0
scalar SERVitESScenario.node[83].nic.mac1609_4 	ReceivedBroadcasts 	69
scalar SERVitESScenario.node[83].nic.mac1609_4 	SentPackets 	0
scalar SERVitESScenario.node[83].nic.mac1609_4 	SNIRLostPackets 	7
scalar SERVitESScenario.node[83].nic.mac1609_4 	RXTXLostPackets 	0
scalar SERVitESScenario.node[83].nic.mac1609_4 	TotalLostPackets 	7
scalar SERVitESScenario.node[83].nic.mac1609_4 	DroppedPacketsInMac 	0
scalar SERVitESScenario.node[83].nic.mac1609_4 	TooLittleTime 	0
scalar SERVitESScenario.node[83].nic.mac1609_4 	TimesIntoBackoff 	0
scalar SERVitESScenario.node[83].nic.mac1609_4 	SlotsBackoff 	0
scalar SERVitESScenario.node[83].nic.mac1609_4 	NumInternalContention 	0
scalar SERVitESScenario.node[83].nic.mac1609_4 	totalBusyTime 	0.00864
scalar SERVitESScenario.node[83].veinsmobility 	startTime 	57.7
scalar SERVitESScenario.node[83].veinsmobility 	totalTime 	1
scalar SERVitESScenario.node[83].veinsmobility 	stopTime 	58.746881937904
scalar SERVitESScenario.node[83].veinsmobility 	minSpeed 	0.06899034547801
scalar SERVitESScenario.node[83].veinsmobility 	maxSpeed 	0.45149311051375
scalar SERVitESScenario.node[83].veinsmobility 	totalDistance 	0.27780150098054
scalar SERVitESScenario.node[83].veinsmobility 	totalCO2Emission 	1.0380980390484
scalar SERVitESScenario.node[8].appl 	"Avg CH Duration" 	0
scalar SERVitESScenario.node[8].appl 	"Avg MV Duration" 	174
scalar SERVitESScenario.node[8].appl 	"Avg GW Duration" 	174
scalar SERVitESScenario.node[8].appl 	"Avg Service Availability" 	528
scalar SERVitESScenario.node[8].appl 	reqNumber 	0
scalar SERVitESScenario.node[8].appl 	"response number" 	0
scalar SERVitESScenario.node[8].appl 	"use resource" 	0
scalar SERVitESScenario.node[8].appl 	requestHelp 	0
scalar SERVitESScenario.node[8].appl 	"Res Ready" 	0
scalar SERVitESScenario.node[8].appl 	"Service Searching TIME MIN " 	1
scalar SERVitESScenario.node[8].appl 	"Service Searching TIME MAX " 	0
scalar SERVitESScenario.node[8].appl 	"join cluster " 	1
scalar SERVitESScenario.node[8].appl 	overheadCluster 	2
scalar SERVitESScenario.node[8].appl 	overheadService 	0
scalar SERVitESScenario.node[8].appl 	overheadBeacon 	73
scalar SERVitESScenario.node[8].nic.phy80211p 	busyTime 	0.0021276562755797
scalar SERVitESScenario.node[8].nic.mac1609_4 	ReceivedUnicastPackets 	0
scalar SERVitESScenario.node[8].nic.mac1609_4 	ReceivedBroadcasts 	782
scalar SERVitESScenario.node[8].nic.mac1609_4 	SentPackets 	74
scalar SERVitESScenario.node[8].nic.mac1609_4 	SNIRLostPackets 	155
scalar SERVitESScenario.node[8].nic.mac1609_4 	RXTXLostPackets 	3
scalar SERVitESScenario.node[8].nic.mac1609_4 	TotalLostPackets 	158
scalar SERVitESScenario.node[8].nic.mac1609_4 	DroppedPacketsInMac 	0
scalar SERVitESScenario.node[8].nic.mac1609_4 	TooLittleTime 	0
scalar SERVitESScenario.node[8].nic.mac1609_4 	TimesIntoBackoff 	75
scalar SERVitESScenario.node[8].nic.mac1609_4 	SlotsBackoff 	259
scalar SERVitESScenario.node[8].nic.mac1609_4 	NumInternalContention 	0
scalar SERVitESScenario.node[8].nic.mac1609_4 	totalBusyTime 	0.111427635052
scalar SERVitESScenario.node[8].veinsmobility 	startTime 	5.9
scalar SERVitESScenario.node[8].veinsmobility 	totalTime 	52.8
scalar SERVitESScenario.node[8].veinsmobility 	stopTime 	58.746881937904
scalar SERVitESScenario.node[8].veinsmobility 	minSpeed 	0.090514420235827
scalar SERVitESScenario.node[8].veinsmobility 	maxSpeed 	1.3888456335311
scalar SERVitESScenario.node[8].veinsmobility 	totalDistance 	68.289711787437
scalar SERVitESScenario.node[8].veinsmobility 	totalCO2Emission 	60.227741019399
scalar SERVitESScenario.node[10].appl 	"Avg CH Duration" 	0
scalar SERVitESScenario.node[10].appl 	"Avg MV Duration" 	174
scalar SERVitESScenario.node[10].appl 	"Avg GW Duration" 	174
scalar SERVitESScenario.node[10].appl 	"Avg Service Availability" 	515
scalar SERVitESScenario.node[10].appl 	reqNumber 	0
scalar SERVitESScenario.node[10].appl 	"response number" 	0
scalar SERVitESScenario.node[10].appl 	"use resource" 	0
scalar SERVitESScenario.node[10].appl 	requestHelp 	0
scalar SERVitESScenario.node[10].appl 	"Res Ready" 	0
scalar SERVitESScenario.node[10].appl 	"Service Searching TIME MIN " 	1
scalar SERVitESScenario.node[10].appl 	"Service Searching TIME MAX " 	0
scalar SERVitESScenario.node[10].appl 	"join cluster " 	1
scalar SERVitESScenario.node[10].appl 	overheadCluster 	2
scalar SERVitESScenario.node[10].appl 	overheadService 	0
scalar SERVitESScenario.node[10].appl 	overheadBeacon 	73
scalar SERVitESScenario.node[10].nic.phy80211p 	busyTime 	0.0021813152565746
scalar SERVitESScenario.node[10].nic.mac1609_4 	ReceivedUnicastPackets 	0
scalar SERVitESScenario.node[10].nic.mac1609_4 	ReceivedBroadcasts 	779
scalar SERVitESScenario.node[10].nic.mac1609_4 	SentPackets 	75
scalar SERVitESScenario.node[10].nic.mac1609_4 	SNIRLostPackets 	158
scalar SERVitESScenario.node[10].nic.mac1609_4 	RXTXLostPackets 	2
scalar SERVitESScenario.node[10].nic.mac1609_4 	TotalLostPackets 	160
scalar SERVitESScenario.node[10].nic.mac1609_4 	DroppedPacketsInMac 	0
scalar SERVitESScenario.node[10].nic.mac1609_4 	TooLittleTime 	0
scalar SERVitESScenario.node[10].nic.mac1609_4 	TimesIntoBackoff 	77
scalar SERVitESScenario.node[10].nic.mac1609_4 	SlotsBackoff 	304
scalar SERVitESScenario.node[10].nic.mac1609_4 	NumInternalContention 	0
scalar SERVitESScenario.node[10].nic.mac1609_4 	totalBusyTime 	0.111428321851
scalar SERVitESScenario.node[10].veinsmobility 	startTime 	7.2
scalar SERVitESScenario.node[10].veinsmobility 	totalTime 	51.5
scalar SERVitESScenario.node[10].veinsmobility 	stopTime 	58.746881937904
scalar SERVitESScenario.node[10].veinsmobility 	minSpeed 	0.10424037625871
scalar SERVitESScenario.node[10].veinsmobility 	maxSpeed 	1.3879889565093
scalar SERVitESScenario.node[10].veinsmobility 	totalDistance 	66.401379807786
scalar SERVitESScenario.node[10].veinsmobility 	totalCO2Emission 	58.746053335219
scalar SERVitESScenario.node[12].appl 	"Avg CH Duration" 	0
scalar SERVitESScenario.node[12].appl 	"Avg MV Duration" 	174
scalar SERVitESScenario.node[12].appl 	"Avg GW Duration" 	174
scalar SERVitESScenario.node[12].appl 	"Avg Service Availability" 	502
scalar SERVitESScenario.node[12].appl 	reqNumber 	0
scalar SERVitESScenario.node[12].appl 	"response number" 	0
scalar SERVitESScenario.node[12].appl 	"use resource" 	0
scalar SERVitESScenario.node[12].appl 	requestHelp 	0
scalar SERVitESScenario.node[12].appl 	"Res Ready" 	0
scalar SERVitESScenario.node[12].appl 	"Service Searching TIME MIN " 	1
scalar SERVitESScenario.node[12].appl 	"Service Searching TIME MAX " 	0
scalar SERVitESScenario.node[12].appl 	"join cluster " 	1
scalar SERVitESScenario.node[12].appl 	overheadCluster 	2
scalar SERVitESScenario.node[12].appl 	overheadService 	0
scalar SERVitESScenario.node[12].appl 	overheadBeacon 	73
scalar SERVitESScenario.node[12].nic.phy80211p 	busyTime 	0.0022258097554832
scalar SERVitESScenario.node[12].nic.mac1609_4 	ReceivedUnicastPackets 	0
scalar SERVitESScenario.node[12].nic.mac1609_4 	ReceivedBroadcasts 	783
scalar SERVitESScenario.node[12].nic.mac1609_4 	SentPackets 	75
scalar SERVitESScenario.node[12].nic.mac1609_4 	SNIRLostPackets 	149
scalar SERVitESScenario.node[12].nic.mac1609_4 	RXTXLostPackets 	7
scalar SERVitESScenario.node[12].nic.mac1609_4 	TotalLostPackets 	156
scalar SERVitESScenario.node[12].nic.mac1609_4 	DroppedPacketsInMac 	0
scalar SERVitESScenario.node[12].nic.mac1609_4 	TooLittleTime 	0
scalar SERVitESScenario.node[12].nic.mac1609_4 	TimesIntoBackoff 	77
scalar SERVitESScenario.node[12].nic.mac1609_4 	SlotsBackoff 	260
scalar SERVitESScenario.node[12].nic.mac1609_4 	NumInternalContention 	0
scalar SERVitESScenario.node[12].nic.mac1609_4 	totalBusyTime 	0.11142825454
scalar SERVitESScenario.node[12].veinsmobility 	startTime 	8.5
scalar SERVitESScenario.node[12].veinsmobility 	totalTime 	50.2
scalar SERVitESScenario.node[12].veinsmobility 	stopTime 	58.746881937904
scalar SERVitESScenario.node[12].veinsmobility 	minSpeed 	0.098259576142858
scalar SERVitESScenario.node[12].veinsmobility 	maxSpeed 	1.3880472636407
scalar SERVitESScenario.node[12].veinsmobility 	totalDistance 	64.52079923585
scalar SERVitESScenario.node[12].veinsmobility 	totalCO2Emission 	57.48904243999
scalar SERVitESScenario.node[14].appl 	"Avg CH Duration" 	0
scalar SERVitESScenario.node[14].appl 	"Avg MV Duration" 	174
scalar SERVitESScenario.node[14].appl 	"Avg GW Duration" 	174
scalar SERVitESScenario.node[14].appl 	"Avg Service Availability" 	489
scalar SERVitESScenario.node[14].appl 	reqNumber 	0
scalar SERVitESScenario.node[14].appl 	"response number" 	0
scalar SERVitESScenario.node[14].appl 	"use resource" 	0
scalar SERVitESScenario.node[14].appl 	requestHelp 	0
scalar SERVitESScenario.node[14].appl 	"Res Ready" 	0
scalar SERVitESScenario.node[14].appl 	"Service Searching TIME MIN " 	1
scalar SERVitESScenario.node[14].appl 	"Service Searching TIME MAX " 	0
scalar SERVitESScenario.node[14].appl 	"join cluster " 	1
scalar SERVitESScenario.node[14].appl 	overheadCluster 	2
scalar SERVitESScenario.node[14].appl 	overheadService 	0
scalar SERVitESScenario.node[14].appl 	overheadBeacon 	73
scalar SERVitESScenario.node[14].nic.phy80211p 	busyTime 	0.0022775710236543
scalar SERVitESScenario.node[14].nic.mac1609_4 	ReceivedUnicastPackets 	0
scalar SERVitESScenario.node[14].nic.mac1609_4 	ReceivedBroadcasts 	782
scalar SERVitESScenario.node[14].nic.mac1609_4 	SentPackets 	75
scalar SERVitESScenario.node[14].nic.mac1609_4 	SNIRLostPackets 	147
scalar SERVitESScenario.node[14].nic.mac1609_4 	RXTXLostPackets 	10
scalar SERVitESScenario.node[14].nic.mac1609_4 	TotalLostPackets 	157
scalar SERVitESScenario.node[14].nic.mac1609_4 	DroppedPacketsInMac 	0
scalar SERVitESScenario.node[14].nic.mac1609_4 	TooLittleTime 	0
scalar SERVitESScenario.node[14].nic.mac1609_4 	TimesIntoBackoff 	76
scalar SERVitESScenario.node[14].nic.mac1609_4 	SlotsBackoff 	267
scalar SERVitESScenario.node[14].nic.mac1609_4 	NumInternalContention 	0
scalar SERVitESScenario.node[14].nic.mac1609_4 	totalBusyTime 	0.111283816594
scalar SERVitESScenario.node[14].veinsmobility 	startTime 	9.8
scalar SERVitESScenario.node[14].veinsmobility 	totalTime 	48.9
scalar SERVitESScenario.node[14].veinsmobility 	stopTime 	58.746881937904
scalar SERVitESScenario.node[14].veinsmobility 	minSpeed 	0.095648207692607
scalar SERVitESScenario.node[14].veinsmobility 	maxSpeed 	1.3882161367413
scalar SERVitESScenario.node[14].veinsmobility 	totalDistance 	62.617065430784
scalar SERVitESScenario.node[14].veinsmobility 	totalCO2Emission 	55.81967893733
scalar SERVitESScenario.node[17].appl 	"Avg CH Duration" 	0
scalar SERVitESScenario.node[17].appl 	"Avg MV Duration" 	174
scalar SERVitESScenario.node[17].appl 	"Avg GW Duration" 	174
scalar SERVitESScenario.node[17].appl 	"Avg Service Availability" 	476
scalar SERVitESScenario.node[17].appl 	reqNumber 	0
scalar SERVitESScenario.node[17].appl 	"response number" 	0
scalar SERVitESScenario.node[17].appl 	"use resource" 	0
scalar SERVitESScenario.node[17].appl 	requestHelp 	0
scalar SERVitESScenario.node[17].appl 	"Res Ready" 	0
scalar SERVitESScenario.node[17].appl 	"Service Searching TIME MIN " 	1
scalar SERVitESScenario.node[17].appl 	"Service Searching TIME MAX " 	0
scalar SERVitESScenario.node[17].appl 	"join cluster " 	1
scalar SERVitESScenario.node[17].appl 	overheadCluster 	2
scalar SERVitESScenario.node[17].appl 	overheadService 	0
scalar SERVitESScenario.node[17].appl 	overheadBeacon 	73
scalar SERVitESScenario.node[17].nic.phy80211p 	busyTime 	0.0023598606126322
scalar SERVitESScenario.node[17].nic.mac1609_4 	ReceivedUnicastPackets 	0
scalar SERVitESScenario.node[17].nic.mac1609_4 	ReceivedBroadcasts 	783
scalar SERVitESScenario.node[17].nic.mac1609_4 	SentPackets 	75
scalar SERVitESScenario.node[17].nic.mac1609_4 	SNIRLostPackets 	154
scalar SERVitESScenario.node[17].nic.mac1609_4 	RXTXLostPackets 	2
scalar SERVitESScenario.node[17].nic.mac1609_4 	TotalLostPackets 	156
scalar SERVitESScenario.node[17].nic.mac1609_4 	DroppedPacketsInMac 	0
scalar SERVitESScenario.node[17].nic.mac1609_4 	TooLittleTime 	0
scalar SERVitESScenario.node[17].nic.mac1609_4 	TimesIntoBackoff 	76
scalar SERVitESScenario.node[17].nic.mac1609_4 	SlotsBackoff 	242
scalar SERVitESScenario.node[17].nic.mac1609_4 	NumInternalContention 	0
scalar SERVitESScenario.node[17].nic.mac1609_4 	totalBusyTime 	0.11135558973
scalar SERVitESScenario.node[17].veinsmobility 	startTime 	11.1
scalar SERVitESScenario.node[17].veinsmobility 	totalTime 	47.6
scalar SERVitESScenario.node[17].veinsmobility 	stopTime 	58.746881937904
scalar SERVitESScenario.node[17].veinsmobility 	minSpeed 	0.078894011851756
scalar SERVitESScenario.node[17].veinsmobility 	maxSpeed 	1.3887645979574
scalar SERVitESScenario.node[17].veinsmobility 	totalDistance 	60.748934597809
scalar SERVitESScenario.node[17].veinsmobility 	totalCO2Emission 	54.260229152704
